@<TRIPOS>MOLECULE
3_methylpentane
   20    19     1     0     0
SMALL
No Charge or Current Charge


@<TRIPOS>ATOM
      1 C1          0.3900   -0.9760   -0.3680 c3        1 R0_     -0.089200
      2 C2         -1.2990   -4.9740   -3.1040 c3        1 R0_     -0.089200
      3 C3          0.5420   -3.9830   -0.8790 c3        1 R0_     -0.086800
      4 C4         -0.7740   -1.8070   -0.8890 c3        1 R0_     -0.074200
      5 C5         -1.6010   -3.7660   -2.2290 c3        1 R0_     -0.074200
      6 C6         -0.3420   -3.0440   -1.7050 c3        1 R0_     -0.063700
      7 H1          1.0670   -0.6940   -1.1810 hc        1 R0_      0.031500
      8 H2          0.0160   -0.0560    0.0930 hc        1 R0_      0.031500
      9 H3          0.9630   -1.5140    0.3920 hc        1 R0_      0.031500
     10 H4         -2.2270   -5.3640   -3.5360 hc        1 R0_      0.031500
     11 H5         -0.8400   -5.7840   -2.5300 hc        1 R0_      0.031500
     12 H6         -0.6290   -4.7070   -3.9270 hc        1 R0_      0.031500
     13 H7          0.0070   -4.3600   -0.0020 hc        1 R0_      0.032200
     14 H8          1.4480   -3.4770   -0.5330 hc        1 R0_      0.032200
     15 H9          0.8740   -4.8420   -1.4700 hc        1 R0_      0.032200
     16 H10        -1.3930   -1.1580   -1.5220 hc        1 R0_      0.037200
     17 H11        -1.4030   -2.1140   -0.0440 hc        1 R0_      0.037200
     18 H12        -2.2320   -4.0790   -1.3880 hc        1 R0_      0.037200
     19 H13        -2.1970   -3.0620   -2.8240 hc        1 R0_      0.037200
     20 H14         0.2400   -2.6980   -2.5700 hc        1 R0_      0.043200
@<TRIPOS>BOND
     1    1    4 1   
     2    2    5 1   
     3    3    6 1   
     4    4    6 1   
     5    5    6 1   
     6    1    7 1   
     7    1    8 1   
     8    1    9 1   
     9    2   10 1   
    10    2   11 1   
    11    2   12 1   
    12    3   13 1   
    13    3   14 1   
    14    3   15 1   
    15    4   16 1   
    16    4   17 1   
    17    5   18 1   
    18    5   19 1   
    19    6   20 1   
@<TRIPOS>SUBSTRUCTURE
     1 R0_         1 TEMP              0 ****  ****    0 ROOT
