@<TRIPOS>MOLECULE
CUP08063_AM1BCC_v1_0
   35    35     1     0     0
SMALL
No Charge or Current Charge


@<TRIPOS>ATOM
      1 C1          4.1060   -2.9700    1.6070 ca        1 R0_     -0.351300
      2 C2          4.7150   -4.2060    1.5170 ca        1 R0_      0.490400
      3 C3          3.0740   -2.9250    2.5250 ca        1 R0_      0.704600
      4 C4          3.3770   -5.0890    3.2040 ca        1 R0_      0.897100
      5 C5          1.3230   -1.5740    1.8730 c         1 R0_      0.755300
      6 C6          4.4710   -1.8090    0.7420 c3        1 R0_     -0.033800
      7 C7          5.8220   -4.4780    0.5410 c3        1 R0_     -0.150900
      8 C8          3.4610   -7.4580    3.5320 c3        1 R0_      0.196300
      9 C9          1.7060   -6.0790    4.6020 c3        1 R0_      0.196300
     10 C10        -0.6950   -0.2610    1.4550 c3        1 R0_      0.078000
     11 C11         0.6980    0.2670    3.4290 c3        1 R0_      0.078000
     12 N1          4.3650   -5.2470    2.3070 nb        1 R0_     -0.758100
     13 N2          2.7210   -3.9320    3.3440 nb        1 R0_     -0.780200
     14 N3          3.0440   -6.1610    4.0380 nh        1 R0_     -0.739300
     15 N4          0.5470   -0.4560    2.1790 n         1 R0_     -0.436300
     16 O1          1.0890   -2.3070    0.9150 o         1 R0_     -0.531500
     17 O2          2.3860   -1.7300    2.7460 os        1 R0_     -0.491800
     18 H1          3.9650   -1.8860   -0.2250 hc        1 R0_      0.045000
     19 H2          4.1960   -0.8560    1.2040 hc        1 R0_      0.045000
     20 H3          5.5520   -1.7640    0.5740 hc        1 R0_      0.045000
     21 H4          6.7060   -3.8840    0.7920 hc        1 R0_      0.058000
     22 H5          6.1100   -5.5340    0.5640 hc        1 R0_      0.058000
     23 H6          5.5010   -4.2430   -0.4790 hc        1 R0_      0.058000
     24 H7          3.1890   -8.2480    4.2420 h1        1 R0_      0.045700
     25 H8          4.5490   -7.5160    3.4130 h1        1 R0_      0.045700
     26 H9          2.9790   -7.6910    2.5750 h1        1 R0_      0.045700
     27 H10         1.5180   -6.9360    5.2580 h1        1 R0_      0.045700
     28 H11         0.9390   -6.0850    3.8190 h1        1 R0_      0.045700
     29 H12         1.5810   -5.1840    5.2230 h1        1 R0_      0.045700
     30 H13        -1.5100   -0.7100    2.0300 h1        1 R0_      0.049100
     31 H14        -0.6610   -0.7250    0.4660 h1        1 R0_      0.049100
     32 H15        -0.8770    0.8110    1.3340 h1        1 R0_      0.049100
     33 H16         0.4020    1.3100    3.2820 h1        1 R0_      0.049100
     34 H17         1.7310    0.2490    3.7850 h1        1 R0_      0.049100
     35 H18         0.0530   -0.1970    4.1810 h1        1 R0_      0.049100
@<TRIPOS>BOND
     1    1    2 ar  
     2    1    3 ar  
     3    1    6 1   
     4    2    7 1   
     5    2   12 ar  
     6    3   13 ar  
     7    3   17 1   
     8    4   12 ar  
     9    4   13 ar  
    10    4   14 1   
    11    5   15 1   
    12    5   16 2   
    13    5   17 1   
    14    8   14 1   
    15    9   14 1   
    16   10   15 1   
    17   11   15 1   
    18    6   18 1   
    19    6   19 1   
    20    6   20 1   
    21    7   21 1   
    22    7   22 1   
    23    7   23 1   
    24    8   24 1   
    25    8   25 1   
    26    8   26 1   
    27    9   27 1   
    28    9   28 1   
    29    9   29 1   
    30   10   30 1   
    31   10   31 1   
    32   10   32 1   
    33   11   33 1   
    34   11   34 1   
    35   11   35 1   
@<TRIPOS>SUBSTRUCTURE
     1 R0_         1 TEMP              0 ****  ****    0 ROOT
