@<TRIPOS>MOLECULE
4_fluorophenol
   13    13     1     0     0
SMALL
No Charge or Current Charge


@<TRIPOS>ATOM
      1 C1          0.8180   -0.4390    0.5640 ca        1 R0_     -0.161200
      2 C2          2.9370   -1.5970    0.6200 ca        1 R0_     -0.161200
      3 C3          0.7990   -0.4060    1.9590 ca        1 R0_     -0.128600
      4 C4          2.9180   -1.5650    2.0140 ca        1 R0_     -0.128600
      5 C5          1.8870   -1.0340   -0.1050 ca        1 R0_      0.111400
      6 C6          1.8500   -0.9690    2.6840 ca        1 R0_      0.089000
      7 O1          1.9060   -1.0660   -1.4660 oh        1 R0_     -0.495900
      8 F1          1.8320   -0.9380    4.0230 f         1 R0_     -0.142900
      9 H1         -0.0040    0.0020    0.0060 ha        1 R0_      0.147700
     10 H2          3.7720   -2.0630    0.1030 ha        1 R0_      0.147700
     11 H3         -0.0330    0.0580    2.4810 ha        1 R0_      0.150800
     12 H4          3.7360   -2.0020    2.5790 ha        1 R0_      0.150800
     13 H5          2.6760   -1.5860   -1.7580 ho        1 R0_      0.421200
@<TRIPOS>BOND
     1    1    3 ar  
     2    1    5 ar  
     3    2    4 ar  
     4    2    5 ar  
     5    3    6 ar  
     6    4    6 ar  
     7    5    7 1   
     8    6    8 1   
     9    1    9 1   
    10    2   10 1   
    11    3   11 1   
    12    4   12 1   
    13    7   13 1   
@<TRIPOS>SUBSTRUCTURE
     1 R0_         1 TEMP              0 ****  ****    0 ROOT
