@<TRIPOS>MOLECULE
trimethylamine
   13    12     1     0     0
SMALL
No Charge or Current Charge


@<TRIPOS>ATOM
      1 C1         -0.2720   -0.2550    1.0310 c3        1 R0_      0.142400
      2 C2          1.7510    0.6710    1.9380 c3        1 R0_      0.142400
      3 C3          1.6570   -1.6540    1.3400 c3        1 R0_      0.142400
      4 N1          0.9010   -0.5170    1.8640 n3        1 R0_     -0.707600
      5 H1         -0.9500   -1.1130    1.0400 h1        1 R0_      0.031200
      6 H2          0.0340   -0.0610   -0.0010 h1        1 R0_      0.031200
      7 H3         -0.8100    0.6220    1.4010 h1        1 R0_      0.031200
      8 H4          1.3700    1.3700    2.6880 h1        1 R0_      0.031200
      9 H5          1.7800    1.1760    0.9690 h1        1 R0_      0.031200
     10 H6          2.7720    0.3880    2.2090 h1        1 R0_      0.031200
     11 H7          2.1960   -2.1620    2.1450 h1        1 R0_      0.031200
     12 H8          2.3800   -1.3150    0.5930 h1        1 R0_      0.031200
     13 H9          0.9800   -2.3700    0.8650 h1        1 R0_      0.031200
@<TRIPOS>BOND
     1    1    4 1   
     2    2    4 1   
     3    3    4 1   
     4    1    5 1   
     5    1    6 1   
     6    1    7 1   
     7    2    8 1   
     8    2    9 1   
     9    2   10 1   
    10    3   11 1   
    11    3   12 1   
    12    3   13 1   
@<TRIPOS>SUBSTRUCTURE
     1 R0_         1 TEMP              0 ****  ****    0 ROOT
