@<TRIPOS>MOLECULE
23_dimethylnaphthalene
   24    25     1     0     0
SMALL
No Charge or Current Charge


@<TRIPOS>ATOM
      1 C1         -0.5710   -2.0560    0.2750 ca        1 R0_     -0.129100
      2 C2          0.3370   -1.0320    0.0230 ca        1 R0_     -0.129100
      3 C3         -0.1390   -3.3820    0.3040 ca        1 R0_     -0.117300
      4 C4          1.6820   -1.3310   -0.2010 ca        1 R0_     -0.117300
      5 C5          1.6630   -5.0300    0.1060 ca        1 R0_     -0.118300
      6 C6          3.4840   -2.9790   -0.3990 ca        1 R0_     -0.118300
      7 C7          1.2100   -3.7010    0.0800 ca        1 R0_     -0.035900
      8 C8          2.1350   -2.6600   -0.1750 ca        1 R0_     -0.035900
      9 C9          3.0080   -5.3280   -0.1180 ca        1 R0_     -0.063100
     10 C10         3.9170   -4.3050   -0.3700 ca        1 R0_     -0.063100
     11 C11         3.4490   -6.7550   -0.0810 c3        1 R0_     -0.059800
     12 C12         5.3600   -4.6010   -0.6120 c3        1 R0_     -0.059800
     13 H1         -1.6180   -1.8240    0.4490 ha        1 R0_      0.130800
     14 H2          0.0000    0.0000    0.0010 ha        1 R0_      0.130800
     15 H3         -0.8670   -4.1660    0.5020 ha        1 R0_      0.131200
     16 H4          2.3740   -0.5140   -0.3950 ha        1 R0_      0.131200
     17 H5          0.9630   -5.8400    0.3020 ha        1 R0_      0.131700
     18 H6          4.2040   -2.1870   -0.5970 ha        1 R0_      0.131700
     19 H7          4.1140   -6.9250    0.7740 hc        1 R0_      0.043300
     20 H8          2.5910   -7.4330    0.0020 hc        1 R0_      0.043300
     21 H9          3.9840   -7.0280   -0.9990 hc        1 R0_      0.043300
     22 H10         5.9520   -4.3650    0.2800 hc        1 R0_      0.043300
     23 H11         5.5110   -5.6590   -0.8620 hc        1 R0_      0.043300
     24 H12         5.7490   -4.0160   -1.4550 hc        1 R0_      0.043300
@<TRIPOS>BOND
     1    1    2 ar  
     2    1    3 ar  
     3    2    4 ar  
     4    3    7 ar  
     5    4    8 ar  
     6    5    7 ar  
     7    5    9 ar  
     8    6    8 ar  
     9    6   10 ar  
    10    7    8 ar  
    11    9   10 ar  
    12    9   11 1   
    13   10   12 1   
    14    1   13 1   
    15    2   14 1   
    16    3   15 1   
    17    4   16 1   
    18    5   17 1   
    19    6   18 1   
    20   11   19 1   
    21   11   20 1   
    22   11   21 1   
    23   12   22 1   
    24   12   23 1   
    25   12   24 1   
@<TRIPOS>SUBSTRUCTURE
     1 R0_         1 TEMP              0 ****  ****    0 ROOT
