@<TRIPOS>MOLECULE
SAMPL4_024
   44    46     1     0     0
SMALL
bcc


@<TRIPOS>ATOM
      1 C1          3.8660    1.0810    6.7820 ca        1 TMP     -0.135000
      2 C2          0.9650   -0.4230    0.5620 ca        1 TMP     -0.135000
      3 C3          5.1180    0.5220    6.5790 ca        1 TMP     -0.125500
      4 C4          1.7760   -1.4230    0.0320 ca        1 TMP     -0.125500
      5 C5          2.7820    0.6460    6.0200 ca        1 TMP     -0.118500
      6 C6          0.9430   -0.1990    1.9390 ca        1 TMP     -0.118500
      7 C7          5.2810   -0.4680    5.6120 ca        1 TMP     -0.134000
      8 C8          2.5700   -2.1990    0.8760 ca        1 TMP     -0.134000
      9 C9          2.9210   -0.3680    5.0470 ca        1 TMP     -0.041800
     10 C10         1.7350   -0.9780    2.7960 ca        1 TMP     -0.041800
     11 C11         4.1980   -0.9340    4.8350 ca        1 TMP     -0.059300
     12 C12         2.5580   -1.9830    2.2620 ca        1 TMP     -0.059300
     13 C13         1.7210   -0.7510    4.2570 ce        1 TMP     -0.015400
     14 C14         0.5610   -1.0060    4.8940 c2        1 TMP     -0.146200
     15 C15         4.5480   -1.9880    3.8000 c3        1 TMP     -0.031600
     16 C16         3.4250   -2.8150    3.1720 c3        1 TMP     -0.031600
     17 C17        -3.8880   -2.9650    5.3890 c3        1 TMP      0.156100
     18 C18        -2.6370   -3.6840    3.4670 c3        1 TMP      0.156100
     19 C19        -0.7020   -1.3980    4.1940 c3        1 TMP     -0.057200
     20 C20        -1.6220   -2.2260    5.0850 c3        1 TMP      0.174800
     21 N1         -2.8460   -2.5840    4.4220 n3        1 TMP     -0.739600
     22 H1          3.7270    1.8490    7.5370 ha        1 TMP      0.131500
     23 H2          0.3470    0.1810   -0.0950 ha        1 TMP      0.131500
     24 H3          5.9650    0.8460    7.1760 ha        1 TMP      0.131000
     25 H4          1.7900   -1.6000   -1.0400 ha        1 TMP      0.131000
     26 H5          1.8140    1.1080    6.2080 ha        1 TMP      0.134500
     27 H6          0.3020    0.5850    2.3340 ha        1 TMP      0.134500
     28 H7          6.2750   -0.8870    5.4650 ha        1 TMP      0.130000
     29 H8          3.1960   -2.9760    0.4450 ha        1 TMP      0.130000
     30 H9          0.5390   -0.9120    5.9720 ha        1 TMP      0.127000
     31 H10         5.0570   -1.4770    2.9710 hc        1 TMP      0.052700
     32 H11         5.2840   -2.6660    4.2550 hc        1 TMP      0.052700
     33 H12         2.8090   -3.2320    3.9780 hc        1 TMP      0.052700
     34 H13         3.8240   -3.6790    2.6250 hc        1 TMP      0.052700
     35 H14        -4.0520   -2.1540    6.1030 h1        1 TMP      0.030700
     36 H15        -3.5850   -3.8610    5.9370 h1        1 TMP      0.030700
     37 H16        -4.8280   -3.1720    4.8700 h1        1 TMP      0.030700
     38 H17        -1.8650   -3.4110    2.7430 h1        1 TMP      0.030700
     39 H18        -3.5640   -3.8980    2.9290 h1        1 TMP      0.030700
     40 H19        -2.3210   -4.5880    3.9950 h1        1 TMP      0.030700
     41 H20        -0.4860   -1.9480    3.2690 hc        1 TMP      0.061200
     42 H21        -1.2220   -0.4780    3.9030 hc        1 TMP      0.061200
     43 H22        -1.8970   -1.6510    5.9750 h1        1 TMP      0.031200
     44 H23        -1.1390   -3.1520    5.4150 h1        1 TMP      0.031200
@<TRIPOS>BOND
     1    1    3 ar  
     2    1    5 ar  
     3    2    4 ar  
     4    2    6 ar  
     5    3    7 ar  
     6    4    8 ar  
     7    5    9 ar  
     8    6   10 ar  
     9    7   11 ar  
    10    8   12 ar  
    11    9   11 ar  
    12    9   13 1   
    13   10   12 ar  
    14   10   13 1   
    15   11   15 1   
    16   12   16 1   
    17   13   14 2   
    18   14   19 1   
    19   15   16 1   
    20   17   21 1   
    21   18   21 1   
    22   19   20 1   
    23   20   21 1   
    24    1   22 1   
    25    2   23 1   
    26    3   24 1   
    27    4   25 1   
    28    5   26 1   
    29    6   27 1   
    30    7   28 1   
    31    8   29 1   
    32   14   30 1   
    33   15   31 1   
    34   15   32 1   
    35   16   33 1   
    36   16   34 1   
    37   17   35 1   
    38   17   36 1   
    39   17   37 1   
    40   18   38 1   
    41   18   39 1   
    42   18   40 1   
    43   19   41 1   
    44   19   42 1   
    45   20   43 1   
    46   20   44 1   
@<TRIPOS>SUBSTRUCTURE
     1 TMP         1 TEMP              0 ****  ****    0 ROOT
