@<TRIPOS>MOLECULE
SAMPL4_017
   29    29     1     0     0
SMALL
bcc


@<TRIPOS>ATOM
      1 C1          0.5460    0.3820    1.0660 c         1 TMP      0.571100
      2 C2          0.9560    0.9450   -0.2790 c3        1 TMP     -0.180400
      3 C3         -1.2060   -1.0580    0.0290 c3        1 TMP     -0.070400
      4 C4         -0.8680   -0.4480   -1.3310 c3        1 TMP     -0.081400
      5 C5         -0.8970   -0.0950    1.1780 c3        1 TMP     -0.156700
      6 C6          0.6090   -0.0360   -1.4000 c3        1 TMP     -0.059700
      7 C7          0.9370    0.5700   -2.7630 c3        1 TMP     -0.091100
      8 C8         -2.6680   -0.7450    2.8360 c3        1 TMP     -0.090100
      9 C9         -0.6310   -2.1850    2.5440 c3        1 TMP     -0.090100
     10 C10        -1.1720   -0.7560    2.5250 c3        1 TMP     -0.059700
     11 O1          1.3190    0.4010    2.0230 o         1 TMP     -0.532100
     12 H1          0.4430    1.9040   -0.4120 hc        1 TMP      0.068200
     13 H2          2.0340    1.1380   -0.2670 hc        1 TMP      0.068200
     14 H3         -2.2680   -1.3320    0.0470 hc        1 TMP      0.051200
     15 H4         -0.6340   -1.9870    0.1540 hc        1 TMP      0.051200
     16 H5         -1.0880   -1.1790   -2.1180 hc        1 TMP      0.045200
     17 H6         -1.5120    0.4220   -1.5130 hc        1 TMP      0.045200
     18 H7         -1.5340    0.7950    1.0920 hc        1 TMP      0.067700
     19 H8          1.2220   -0.9390   -1.2730 hc        1 TMP      0.054700
     20 H9          0.3450    1.4700   -2.9190 hc        1 TMP      0.037033
     21 H10         0.7110   -0.1470   -3.5500 hc        1 TMP      0.037033
     22 H11         1.9940    0.8270   -2.8080 hc        1 TMP      0.037033
     23 H12        -3.2340   -1.3060    2.0850 hc        1 TMP      0.035367
     24 H13        -3.0530    0.2800    2.8540 hc        1 TMP      0.035367
     25 H14        -2.8650   -1.1940    3.8150 hc        1 TMP      0.035367
     26 H15        -1.1160   -2.8040    1.7820 hc        1 TMP      0.035367
     27 H16        -0.8020   -2.6530    3.5200 hc        1 TMP      0.035367
     28 H17         0.4470   -2.1940    2.3530 hc        1 TMP      0.035367
     29 H18        -0.6550   -0.1820    3.3050 hc        1 TMP      0.065700
@<TRIPOS>BOND
     1    1    2 1   
     2    1    5 1   
     3    1   11 2   
     4    2    6 1   
     5    3    4 1   
     6    3    5 1   
     7    4    6 1   
     8    5   10 1   
     9    6    7 1   
    10    8   10 1   
    11    9   10 1   
    12    2   12 1   
    13    2   13 1   
    14    3   14 1   
    15    3   15 1   
    16    4   16 1   
    17    4   17 1   
    18    5   18 1   
    19    6   19 1   
    20    7   20 1   
    21    7   21 1   
    22    7   22 1   
    23    8   23 1   
    24    8   24 1   
    25    8   25 1   
    26    9   26 1   
    27    9   27 1   
    28    9   28 1   
    29   10   29 1   
@<TRIPOS>SUBSTRUCTURE
     1 TMP         1 TEMP              0 ****  ****    0 ROOT
