@<TRIPOS>MOLECULE
pentanoic_acid
   17    16     1     0     0
SMALL
No Charge or Current Charge


@<TRIPOS>ATOM
      1 C1          1.6520   -1.7680    3.5070 c         1 R0_      0.633800
      2 C2         -2.8810   -0.8830    1.4180 c3        1 R0_     -0.090900
      3 C3          0.8490   -0.8490    2.6140 c3        1 R0_     -0.124000
      4 C4         -1.4440   -0.4110    1.5740 c3        1 R0_     -0.079800
      5 C5         -0.6040   -1.3070    2.4860 c3        1 R0_     -0.075600
      6 O1          1.2200   -2.7570    4.0820 o         1 R0_     -0.549400
      7 O2          2.9470   -1.3640    3.5960 oh        1 R0_     -0.611600
      8 H1         -3.4540   -0.1540    0.8350 hc        1 R0_      0.034200
      9 H2         -2.9350   -1.8410    0.8940 hc        1 R0_      0.034200
     10 H3         -3.3670   -0.9930    2.3930 hc        1 R0_      0.034200
     11 H4          0.8790    0.1580    3.0460 hc        1 R0_      0.078400
     12 H5          1.3300   -0.8350    1.6310 hc        1 R0_      0.078400
     13 H6         -1.4530    0.6010    1.9940 hc        1 R0_      0.042700
     14 H7         -0.9740   -0.3400    0.5860 hc        1 R0_      0.042700
     15 H8         -1.0690   -1.3180    3.4800 hc        1 R0_      0.054600
     16 H9         -0.6360   -2.3410    2.1200 hc        1 R0_      0.054600
     17 H10         3.5180   -1.9280    4.1610 ho        1 R0_      0.443400
@<TRIPOS>BOND
     1    1    3 1   
     2    1    6 2   
     3    1    7 1   
     4    2    4 1   
     5    3    5 1   
     6    4    5 1   
     7    2    8 1   
     8    2    9 1   
     9    2   10 1   
    10    3   11 1   
    11    3   12 1   
    12    4   13 1   
    13    4   14 1   
    14    5   15 1   
    15    5   16 1   
    16    7   17 1   
@<TRIPOS>SUBSTRUCTURE
     1 R0_         1 TEMP              0 ****  ****    0 ROOT
