@<TRIPOS>MOLECULE
propan_2_ol
   12    11     1     0     0
SMALL
No Charge or Current Charge


@<TRIPOS>ATOM
      1 C1          1.0770    0.0500    0.1960 c3        1 R0_     -0.127000
      2 C2          2.8430    1.0380    1.6980 c3        1 R0_     -0.127000
      3 C3          1.3530    0.9190    1.4130 c3        1 R0_      0.138000
      4 O1          0.8120    2.2180    1.1940 oh        1 R0_     -0.603600
      5 H1          1.4530   -0.9670    0.3400 hc        1 R0_      0.041100
      6 H2          0.0000    0.0000    0.0000 hc        1 R0_      0.041100
      7 H3          1.5400    0.4710   -0.7030 hc        1 R0_      0.041100
      8 H4          3.2880    0.0590    1.8990 hc        1 R0_      0.041100
      9 H5          3.0140    1.6860    2.5640 hc        1 R0_      0.041100
     10 H6          3.3700    1.4960    0.8530 hc        1 R0_      0.041100
     11 H7          0.8470    0.4960    2.2870 h1        1 R0_      0.076600
     12 H8          1.1340    2.5100    0.3260 ho        1 R0_      0.396300
@<TRIPOS>BOND
     1    1    3 1   
     2    2    3 1   
     3    3    4 1   
     4    1    5 1   
     5    1    6 1   
     6    1    7 1   
     7    2    8 1   
     8    2    9 1   
     9    2   10 1   
    10    3   11 1   
    11    4   12 1   
@<TRIPOS>SUBSTRUCTURE
     1 R0_         1 TEMP              0 ****  ****    0 ROOT
