@<TRIPOS>MOLECULE
methyl_acetate
   11    10     1     0     0
SMALL
No Charge or Current Charge


@<TRIPOS>ATOM
      1 C1         -1.6380   -0.5840   -1.2370 c         1 R0_      0.627600
      2 C2         -0.9370   -0.5550    0.0880 c3        1 R0_     -0.145300
      3 C3         -2.5910    0.8100   -2.8890 c3        1 R0_      0.130000
      4 O1         -1.9040   -1.6090   -1.8490 o         1 R0_     -0.540600
      5 O2         -1.9190    0.6900   -1.6320 os        1 R0_     -0.445500
      6 H1         -1.5860   -0.1000    0.8410 hc        1 R0_      0.074900
      7 H2          0.0000    0.0000    0.0000 hc        1 R0_      0.074900
      8 H3         -0.7070   -1.5790    0.3990 hc        1 R0_      0.074900
      9 H4         -1.8630    0.7410   -3.7010 h1        1 R0_      0.049700
     10 H5         -3.1130    1.7700   -2.9340 h1        1 R0_      0.049700
     11 H6         -3.3170   -0.0010   -2.9830 h1        1 R0_      0.049700
@<TRIPOS>BOND
     1    1    2 1   
     2    1    4 2   
     3    1    5 1   
     4    3    5 1   
     5    2    6 1   
     6    2    7 1   
     7    2    8 1   
     8    3    9 1   
     9    3   10 1   
    10    3   11 1   
@<TRIPOS>SUBSTRUCTURE
     1 R0_         1 TEMP              0 ****  ****    0 ROOT
