@<TRIPOS>MOLECULE
o_xylene
   18    18     1     0     0
SMALL
No Charge or Current Charge


@<TRIPOS>ATOM
      1 C1          1.8850   -1.0380   -0.1090 ca        1 R0_     -0.131600
      2 C2          0.8180   -0.4410    0.5630 ca        1 R0_     -0.131600
      3 C3          2.9350   -1.6040    0.6140 ca        1 R0_     -0.126800
      4 C4          0.8010   -0.4100    1.9570 ca        1 R0_     -0.126800
      5 C5          2.9180   -1.5730    2.0080 ca        1 R0_     -0.068600
      6 C6          1.8510   -0.9770    2.6800 ca        1 R0_     -0.068600
      7 C7          4.0540   -2.1850    2.7600 c3        1 R0_     -0.058900
      8 C8          1.8110   -0.9320    4.1720 c3        1 R0_     -0.058900
      9 H1          1.8970   -1.0620   -1.1940 ha        1 R0_      0.129600
     10 H2         -0.0000   -0.0010   -0.0010 ha        1 R0_      0.129600
     11 H3          3.7610   -2.0670    0.0810 ha        1 R0_      0.129500
     12 H4         -0.0350    0.0570    2.4710 ha        1 R0_      0.129500
     13 H5          4.5580   -1.4270    3.3710 hc        1 R0_      0.042200
     14 H6          3.7050   -2.9900    3.4200 hc        1 R0_      0.042200
     15 H7          4.7890   -2.6290    2.0770 hc        1 R0_      0.042200
     16 H8          2.7160   -0.4530    4.5620 hc        1 R0_      0.042200
     17 H9          0.9380   -0.3720    4.5290 hc        1 R0_      0.042200
     18 H10         1.7380   -1.9410    4.5970 hc        1 R0_      0.042200
@<TRIPOS>BOND
     1    1    2 ar  
     2    1    3 ar  
     3    2    4 ar  
     4    3    5 ar  
     5    4    6 ar  
     6    5    6 ar  
     7    5    7 1   
     8    6    8 1   
     9    1    9 1   
    10    2   10 1   
    11    3   11 1   
    12    4   12 1   
    13    7   13 1   
    14    7   14 1   
    15    7   15 1   
    16    8   16 1   
    17    8   17 1   
    18    8   18 1   
@<TRIPOS>SUBSTRUCTURE
     1 R0_         1 TEMP              0 ****  ****    0 ROOT
