@<TRIPOS>MOLECULE
14_dichlorobenzene
   12    12     1     0     0
SMALL
No Charge or Current Charge


@<TRIPOS>ATOM
      1 C1          0.8180   -0.4390    0.5640 ca        1 R0_     -0.116400
      2 C2          0.7990   -0.4060    1.9590 ca        1 R0_     -0.116400
      3 C3          2.9370   -1.5970    0.6200 ca        1 R0_     -0.116400
      4 C4          2.9180   -1.5650    2.0140 ca        1 R0_     -0.116400
      5 C5          1.8870   -1.0340   -0.1050 ca        1 R0_      0.015700
      6 C6          1.8500   -0.9690    2.6840 ca        1 R0_      0.015700
      7 Cl1         1.9100   -1.0740   -1.8250 cl        1 R0_     -0.087500
      8 Cl2         1.8270   -0.9290    4.4040 cl        1 R0_     -0.087500
      9 H1         -0.0070    0.0040    0.0120 ha        1 R0_      0.152400
     10 H2         -0.0400    0.0610    2.4680 ha        1 R0_      0.152400
     11 H3          3.7760   -2.0640    0.1110 ha        1 R0_      0.152400
     12 H4          3.7430   -2.0070    2.5660 ha        1 R0_      0.152400
@<TRIPOS>BOND
     1    1    2 ar  
     2    1    5 ar  
     3    2    6 ar  
     4    3    4 ar  
     5    3    5 ar  
     6    4    6 ar  
     7    5    7 1   
     8    6    8 1   
     9    1    9 1   
    10    2   10 1   
    11    3   11 1   
    12    4   12 1   
@<TRIPOS>SUBSTRUCTURE
     1 R0_         1 TEMP              0 ****  ****    0 ROOT
