@<TRIPOS>MOLECULE
tetrahydrofuran
   13    13     1     0     0
SMALL
No Charge or Current Charge


@<TRIPOS>ATOM
      1 C1          0.9420   -0.5000   -0.2530 c3        1 R0_     -0.110400
      2 C2          0.9470   -1.8950    0.3170 c3        1 R0_     -0.110400
      3 C3          2.0870    0.1460    0.4960 c3        1 R0_      0.125700
      4 C4          1.3000   -1.6380    1.7660 c3        1 R0_      0.125700
      5 O1          2.1410   -0.4760    1.7870 os        1 R0_     -0.434100
      6 H1          1.0680   -0.4680   -1.3380 hc        1 R0_      0.054400
      7 H2         -0.0000    0.0000   -0.0000 hc        1 R0_      0.054400
      8 H3         -0.0010   -2.4250    0.1960 hc        1 R0_      0.054400
      9 H4          1.7360   -2.4880   -0.1600 hc        1 R0_      0.054400
     10 H5          3.0440   -0.0410   -0.0050 h1        1 R0_      0.046500
     11 H6          1.9590    1.2260    0.6110 h1        1 R0_      0.046500
     12 H7          0.4060   -1.4140    2.3580 h1        1 R0_      0.046500
     13 H8          1.8230   -2.4810    2.2280 h1        1 R0_      0.046500
@<TRIPOS>BOND
     1    1    2 1   
     2    1    3 1   
     3    2    4 1   
     4    3    5 1   
     5    4    5 1   
     6    1    6 1   
     7    1    7 1   
     8    2    8 1   
     9    2    9 1   
    10    3   10 1   
    11    3   11 1   
    12    4   12 1   
    13    4   13 1   
@<TRIPOS>SUBSTRUCTURE
     1 R0_         1 TEMP              0 ****  ****    0 ROOT
