@<TRIPOS>MOLECULE
13_dichloropropane
   11    10     1     0     0
SMALL
No Charge or Current Charge


@<TRIPOS>ATOM
      1 C1          0.7220   -0.5600   -0.6080 c3        1 R0_     -0.098600
      2 C2          1.8690    0.3690   -0.9980 c3        1 R0_      0.035800
      3 C3         -0.0270   -1.2070   -1.7710 c3        1 R0_      0.035800
      4 Cl1         1.3110    1.7500   -1.9700 cl        1 R0_     -0.193700
      5 Cl2         1.0330   -2.2400   -2.7570 cl        1 R0_     -0.193700
      6 H1          1.1210   -1.3490    0.0430 hc        1 R0_      0.067500
      7 H2         -0.0000    0.0000    0.0000 hc        1 R0_      0.067500
      8 H3          2.3370    0.7790   -0.0970 h1        1 R0_      0.069900
      9 H4          2.6430   -0.1520   -1.5670 h1        1 R0_      0.069900
     10 H5         -0.4810   -0.4620   -2.4300 h1        1 R0_      0.069900
     11 H6         -0.8290   -1.8450   -1.3850 h1        1 R0_      0.069900
@<TRIPOS>BOND
     1    1    2 1   
     2    1    3 1   
     3    2    4 1   
     4    3    5 1   
     5    1    6 1   
     6    1    7 1   
     7    2    8 1   
     8    2    9 1   
     9    3   10 1   
    10    3   11 1   
@<TRIPOS>SUBSTRUCTURE
     1 R0_         1 TEMP              0 ****  ****    0 ROOT
