@<TRIPOS>MOLECULE
cycloheptanol
   22    22     1     0     0
SMALL
No Charge or Current Charge


@<TRIPOS>ATOM
      1 C1         -0.2290   -1.5570   -1.4440 c3        1 R0_     -0.073200
      2 C2         -0.2460   -0.0790   -1.0670 c3        1 R0_     -0.073200
      3 C3         -0.9660   -1.9060   -2.7330 c3        1 R0_     -0.068900
      4 C4         -1.5320    0.6950   -1.3370 c3        1 R0_     -0.068900
      5 C5         -2.4550   -2.1560   -2.5080 c3        1 R0_     -0.097400
      6 C6         -2.8210   -0.0640   -1.0440 c3        1 R0_     -0.097400
      7 C7         -3.2960   -0.9140   -2.2240 c3        1 R0_      0.146900
      8 O1         -4.6300   -1.3400   -1.9320 oh        1 R0_     -0.606000
      9 H1          0.8210   -1.8610   -1.5440 hc        1 R0_      0.037200
     10 H2         -0.6300   -2.1510   -0.6130 hc        1 R0_      0.037200
     11 H3         -0.0000   -0.0000    0.0000 hc        1 R0_      0.037200
     12 H4          0.5710    0.4320   -1.5940 hc        1 R0_      0.037200
     13 H5         -0.8050   -1.1430   -3.5030 hc        1 R0_      0.038700
     14 H6         -0.5340   -2.8370   -3.1220 hc        1 R0_      0.038700
     15 H7         -1.5090    1.6010   -0.7180 hc        1 R0_      0.038700
     16 H8         -1.5360    1.0490   -2.3760 hc        1 R0_      0.038700
     17 H9         -2.8660   -2.6440   -3.4030 hc        1 R0_      0.046300
     18 H10        -2.5940   -2.8900   -1.7030 hc        1 R0_      0.046300
     19 H11        -2.7310   -0.6700   -0.1350 hc        1 R0_      0.046300
     20 H12        -3.6070    0.6710   -0.8230 hc        1 R0_      0.046300
     21 H13        -3.3540   -0.2960   -3.1270 h1        1 R0_      0.052400
     22 H14        -4.5990   -1.7460   -1.0530 ho        1 R0_      0.396600
@<TRIPOS>BOND
     1    1    2 1   
     2    1    3 1   
     3    2    4 1   
     4    3    5 1   
     5    4    6 1   
     6    5    7 1   
     7    6    7 1   
     8    7    8 1   
     9    1    9 1   
    10    1   10 1   
    11    2   11 1   
    12    2   12 1   
    13    3   13 1   
    14    3   14 1   
    15    4   15 1   
    16    4   16 1   
    17    5   17 1   
    18    5   18 1   
    19    6   19 1   
    20    6   20 1   
    21    7   21 1   
    22    8   22 1   
@<TRIPOS>SUBSTRUCTURE
     1 R0_         1 TEMP              0 ****  ****    0 ROOT
