@<TRIPOS>MOLECULE
2_methylpentane
   20    19     1     0     0
SMALL
No Charge or Current Charge


@<TRIPOS>ATOM
      1 C1          0.8220   -0.2570   -0.6040 c3        1 R0_     -0.089900
      2 C2          2.1900    2.3480   -3.8440 c3        1 R0_     -0.087100
      3 C3          0.9140    4.2730   -2.8810 c3        1 R0_     -0.087100
      4 C4          0.8430    0.4610   -1.9450 c3        1 R0_     -0.076800
      5 C5          0.8300    1.9810   -1.7630 c3        1 R0_     -0.073200
      6 C6          0.9220    2.7580   -3.0900 c3        1 R0_     -0.065700
      7 H1          1.7000    0.0050   -0.0040 hc        1 R0_      0.031300
      8 H2         -0.0750    0.0030   -0.0340 hc        1 R0_      0.031300
      9 H3          0.8260   -1.3410   -0.7550 hc        1 R0_      0.031300
     10 H4          2.1940    1.2710   -4.0420 hc        1 R0_      0.032000
     11 H5          3.0900    2.5920   -3.2700 hc        1 R0_      0.032000
     12 H6          2.2530    2.8630   -4.8080 hc        1 R0_      0.032000
     13 H7          1.7190    4.5860   -2.2070 hc        1 R0_      0.032000
     14 H8          1.0490    4.7970   -3.8340 hc        1 R0_      0.032000
     15 H9         -0.0370    4.6120   -2.4580 hc        1 R0_      0.032000
     16 H10         1.7380    0.1590   -2.5000 hc        1 R0_      0.037400
     17 H11        -0.0270    0.1390   -2.5260 hc        1 R0_      0.037400
     18 H12        -0.0790    2.2750   -1.2230 hc        1 R0_      0.037300
     19 H13         1.6780    2.2660   -1.1280 hc        1 R0_      0.037300
     20 H14         0.0600    2.4930   -3.7140 hc        1 R0_      0.044500
@<TRIPOS>BOND
     1    1    4 1   
     2    2    6 1   
     3    3    6 1   
     4    4    5 1   
     5    5    6 1   
     6    1    7 1   
     7    1    8 1   
     8    1    9 1   
     9    2   10 1   
    10    2   11 1   
    11    2   12 1   
    12    3   13 1   
    13    3   14 1   
    14    3   15 1   
    15    4   16 1   
    16    4   17 1   
    17    5   18 1   
    18    5   19 1   
    19    6   20 1   
@<TRIPOS>SUBSTRUCTURE
     1 R0_         1 TEMP              0 ****  ****    0 ROOT
