@<TRIPOS>MOLECULE
diethyl_disulfide
   16    15     1     0     0
SMALL
No Charge or Current Charge


@<TRIPOS>ATOM
      1 C1         -0.2790    0.2910   -0.1360 c3        1 R0_     -0.091300
      2 C2          4.0740   -2.4860    3.7240 c3        1 R0_     -0.091300
      3 C3          0.8110   -0.6600    0.3190 c3        1 R0_     -0.011700
      4 C4          2.7900   -1.8010    3.2950 c3        1 R0_     -0.011700
      5 S1          0.2410   -1.6600    1.7150 ss        1 R0_     -0.181100
      6 S2          1.8940   -2.8210    2.1000 ss        1 R0_     -0.181100
      7 H1         -1.1710   -0.2510   -0.4690 hc        1 R0_      0.046100
      8 H2         -0.5690    0.9830    0.6620 hc        1 R0_      0.046100
      9 H3          0.0770    0.8900   -0.9800 hc        1 R0_      0.046100
     10 H4          3.8740   -3.4490    4.2060 hc        1 R0_      0.046100
     11 H5          4.7440   -2.6540    2.8740 hc        1 R0_      0.046100
     12 H6          4.6070   -1.8590    4.4470 hc        1 R0_      0.046100
     13 H7          1.6990   -0.0990    0.6270 h1        1 R0_      0.072900
     14 H8          1.0980   -1.3270   -0.4990 h1        1 R0_      0.072900
     15 H9          3.0120   -0.8330    2.8350 h1        1 R0_      0.072900
     16 H10         2.1460   -1.6260    4.1620 h1        1 R0_      0.072900
@<TRIPOS>BOND
     1    1    3 1   
     2    2    4 1   
     3    3    5 1   
     4    4    6 1   
     5    5    6 1   
     6    1    7 1   
     7    1    8 1   
     8    1    9 1   
     9    2   10 1   
    10    2   11 1   
    11    2   12 1   
    12    3   13 1   
    13    3   14 1   
    14    4   15 1   
    15    4   16 1   
@<TRIPOS>SUBSTRUCTURE
     1 R0_         1 TEMP              0 ****  ****    0 ROOT
