@<TRIPOS>MOLECULE
n_butylbenzene
   24    24     1     0     0
SMALL
No Charge or Current Charge


@<TRIPOS>ATOM
      1 C1          2.2020    2.6220   -6.6510 ca        1 R0_     -0.133800
      2 C2          2.4510    3.5730   -5.6610 ca        1 R0_     -0.128300
      3 C3          1.1510    1.7180   -6.5010 ca        1 R0_     -0.128300
      4 C4          1.6490    3.6190   -4.5210 ca        1 R0_     -0.128400
      5 C5          0.3490    1.7630   -5.3610 ca        1 R0_     -0.128400
      6 C6          0.6070    2.7130   -4.3840 ca        1 R0_     -0.065800
      7 C7         -0.0940    0.9870    0.2920 c3        1 R0_     -0.089800
      8 C8         -0.2600    2.7630   -3.1520 c3        1 R0_     -0.045100
      9 C9         -0.6140    1.9020   -0.8050 c3        1 R0_     -0.078400
     10 C10         0.2910    1.8720   -2.0360 c3        1 R0_     -0.072200
     11 H1          2.8270    2.5870   -7.5390 ha        1 R0_      0.129900
     12 H2          3.2690    4.2770   -5.7780 ha        1 R0_      0.129700
     13 H3          0.9580    0.9770   -7.2720 ha        1 R0_      0.129700
     14 H4          1.8500    4.3620   -3.7550 ha        1 R0_      0.130500
     15 H5         -0.4680    1.0540   -5.2530 ha        1 R0_      0.130500
     16 H6          0.9060    1.2920    0.6160 hc        1 R0_      0.031900
     17 H7         -0.0410   -0.0500   -0.0540 hc        1 R0_      0.031900
     18 H8         -0.7580    1.0220    1.1610 hc        1 R0_      0.031900
     19 H9         -0.3380    3.8000   -2.8030 hc        1 R0_      0.046300
     20 H10        -1.2800    2.4550   -3.4120 hc        1 R0_      0.046300
     21 H11        -0.6830    2.9250   -0.4180 hc        1 R0_      0.038800
     22 H12        -1.6280    1.5900   -1.0810 hc        1 R0_      0.038800
     23 H13         1.3000    2.2030   -1.7580 hc        1 R0_      0.041100
     24 H14         0.3870    0.8400   -2.3960 hc        1 R0_      0.041100
@<TRIPOS>BOND
     1    1    2 ar  
     2    1    3 ar  
     3    2    4 ar  
     4    3    5 ar  
     5    4    6 ar  
     6    5    6 ar  
     7    6    8 1   
     8    7    9 1   
     9    8   10 1   
    10    9   10 1   
    11    1   11 1   
    12    2   12 1   
    13    3   13 1   
    14    4   14 1   
    15    5   15 1   
    16    7   16 1   
    17    7   17 1   
    18    7   18 1   
    19    8   19 1   
    20    8   20 1   
    21    9   21 1   
    22    9   22 1   
    23   10   23 1   
    24   10   24 1   
@<TRIPOS>SUBSTRUCTURE
     1 R0_         1 TEMP              0 ****  ****    0 ROOT
