@<TRIPOS>MOLECULE
2_methylpyridine
   14    14     1     0     0
SMALL
No Charge or Current Charge


@<TRIPOS>ATOM
      1 C1          1.2860   -0.0600    1.7330 ca        1 R0_     -0.089700
      2 C2          0.1840   -0.4390    0.9740 ca        1 R0_     -0.253300
      3 C3          1.4970   -0.6400    2.9790 ca        1 R0_     -0.251500
      4 C4         -0.6700   -1.3940    1.5010 ca        1 R0_      0.399400
      5 C5          0.5840   -1.5860    3.4170 ca        1 R0_      0.412000
      6 C6          0.7790   -2.2280    4.7500 c3        1 R0_     -0.147400
      7 N1         -0.4980   -1.9790    2.7080 nb        1 R0_     -0.667800
      8 H1          1.9790    0.6850    1.3540 ha        1 R0_      0.136400
      9 H2          0.0000   -0.0010   -0.0000 ha        1 R0_      0.142400
     10 H3          2.3530   -0.3530    3.5810 ha        1 R0_      0.141000
     11 H4         -1.5430   -1.7240    0.9480 h4        1 R0_      0.020600
     12 H5          1.5660   -1.7100    5.3110 hc        1 R0_      0.052700
     13 H6         -0.1440   -2.2050    5.3420 hc        1 R0_      0.052700
     14 H7          1.0640   -3.2830    4.6450 hc        1 R0_      0.052700
@<TRIPOS>BOND
     1    1    2 ar  
     2    1    3 ar  
     3    2    4 ar  
     4    3    5 ar  
     5    4    7 ar  
     6    5    6 1   
     7    5    7 ar  
     8    1    8 1   
     9    2    9 1   
    10    3   10 1   
    11    4   11 1   
    12    6   12 1   
    13    6   13 1   
    14    6   14 1   
@<TRIPOS>SUBSTRUCTURE
     1 R0_         1 TEMP              0 ****  ****    0 ROOT
