@<TRIPOS>MOLECULE
cyanobenzene
   13    13     1     0     0
SMALL
No Charge or Current Charge


@<TRIPOS>ATOM
      1 C1          1.8330   -0.9460    4.1080 cg        1 R0_      0.231100
      2 C2          1.8850   -1.0380   -0.1090 ca        1 R0_     -0.106800
      3 C3          0.8180   -0.4410    0.5630 ca        1 R0_     -0.134900
      4 C4          2.9350   -1.6040    0.6140 ca        1 R0_     -0.134900
      5 C5          0.8010   -0.4100    1.9570 ca        1 R0_     -0.090700
      6 C6          2.9180   -1.5730    2.0080 ca        1 R0_     -0.090700
      7 C7          1.8510   -0.9770    2.6800 ca        1 R0_     -0.018800
      8 N1          1.8190   -0.9200    5.2700 n1        1 R0_     -0.362200
      9 H1          1.8980   -1.0610   -1.1950 ha        1 R0_      0.137900
     10 H2          0.0000   -0.0000   -0.0000 ha        1 R0_      0.140000
     11 H3          3.7650   -2.0680    0.0900 ha        1 R0_      0.140000
     12 H4         -0.0380    0.0580    2.4660 ha        1 R0_      0.145100
     13 H5          3.7440   -2.0190    2.5580 ha        1 R0_      0.145100
@<TRIPOS>BOND
     1    1    7 1   
     2    1    8 3   
     3    2    3 ar  
     4    2    4 ar  
     5    3    5 ar  
     6    4    6 ar  
     7    5    7 ar  
     8    6    7 ar  
     9    2    9 1   
    10    3   10 1   
    11    4   11 1   
    12    5   12 1   
    13    6   13 1   
@<TRIPOS>SUBSTRUCTURE
     1 R0_         1 TEMP              0 ****  ****    0 ROOT
