@<TRIPOS>MOLECULE
23_dimethylpentane
   23    22     1     0     0
SMALL
No Charge or Current Charge


@<TRIPOS>ATOM
      1 C1         -3.0280    2.9020    1.4720 c3        1 R0_     -0.089100
      2 C2          0.7600    0.4900    2.3200 c3        1 R0_     -0.086700
      3 C3          0.5930    0.7760   -0.1610 c3        1 R0_     -0.086700
      4 C4         -0.3360    3.4250    2.5960 c3        1 R0_     -0.086800
      5 C5         -1.8880    1.9000    1.3590 c3        1 R0_     -0.073100
      6 C6          0.6710    1.5110    1.1820 c3        1 R0_     -0.060900
      7 C7         -0.4820    2.5420    1.3490 c3        1 R0_     -0.057400
      8 H1         -3.9880    2.3940    1.3350 hc        1 R0_      0.031600
      9 H2         -3.0490    3.3800    2.4560 hc        1 R0_      0.031600
     10 H3         -2.9460    3.6810    0.7070 hc        1 R0_      0.031600
     11 H4          0.9050    0.9780    3.2880 hc        1 R0_      0.032200
     12 H5          1.6150   -0.1790    2.1660 hc        1 R0_      0.032200
     13 H6         -0.1380   -0.1330    2.3780 hc        1 R0_      0.032200
     14 H7          1.5020    0.1890   -0.3290 hc        1 R0_      0.032200
     15 H8          0.4990    1.4850   -0.9910 hc        1 R0_      0.032200
     16 H9         -0.2550    0.0840   -0.2010 hc        1 R0_      0.032200
     17 H10        -1.1330    4.1710    2.6590 hc        1 R0_      0.032300
     18 H11        -0.3460    2.8310    3.5160 hc        1 R0_      0.032300
     19 H12         0.6120    3.9740    2.5680 hc        1 R0_      0.032300
     20 H13        -2.0260    1.3420    0.4230 hc        1 R0_      0.036900
     21 H14        -1.9710    1.1650    2.1670 hc        1 R0_      0.036900
     22 H15         1.6170    2.0660    1.1670 hc        1 R0_      0.041100
     23 H16        -0.4450    3.2140    0.4800 hc        1 R0_      0.041000
@<TRIPOS>BOND
     1    1    5 1   
     2    2    6 1   
     3    3    6 1   
     4    4    7 1   
     5    5    7 1   
     6    6    7 1   
     7    1    8 1   
     8    1    9 1   
     9    1   10 1   
    10    2   11 1   
    11    2   12 1   
    12    2   13 1   
    13    3   14 1   
    14    3   15 1   
    15    3   16 1   
    16    4   17 1   
    17    4   18 1   
    18    4   19 1   
    19    5   20 1   
    20    5   21 1   
    21    6   22 1   
    22    7   23 1   
@<TRIPOS>SUBSTRUCTURE
     1 R0_         1 TEMP              0 ****  ****    0 ROOT
