@<TRIPOS>MOLECULE
NN_dimethylbenzamide
   22    22     1     0     0
SMALL
No Charge or Current Charge


@<TRIPOS>ATOM
      1 C1          1.7420   -1.1610   -0.1510 ca        1 R0_     -0.114900
      2 C2          0.6920   -0.5510    0.5350 ca        1 R0_     -0.135100
      3 C3          2.8150   -1.7040    0.5560 ca        1 R0_     -0.135100
      4 C4          0.7140   -0.4850    1.9280 ca        1 R0_     -0.096600
      5 C5          2.8370   -1.6380    1.9490 ca        1 R0_     -0.096600
      6 C6          1.7870   -1.0290    2.6350 ca        1 R0_     -0.130400
      7 C7          1.8100   -0.9590    4.0880 c         1 R0_      0.670500
      8 C8          1.2310   -2.0170    6.2850 c3        1 R0_      0.084400
      9 C9          0.5970   -3.1550    4.1870 c3        1 R0_      0.084400
     10 N1          1.2330   -2.0070    4.8290 n         1 R0_     -0.482400
     11 O1          2.3570    0.0290    4.5940 o         1 R0_     -0.594100
     12 H1          1.7250   -1.2120   -1.2360 ha        1 R0_      0.134600
     13 H2         -0.1430   -0.1270   -0.0150 ha        1 R0_      0.136500
     14 H3          3.6320   -2.1800    0.0220 ha        1 R0_      0.136500
     15 H4         -0.1100   -0.0070    2.4520 ha        1 R0_      0.143400
     16 H5          3.6780   -2.0660    2.4900 ha        1 R0_      0.143400
     17 H6          0.1970   -1.9890    6.6340 h1        1 R0_      0.041900
     18 H7          1.7740   -1.1400    6.6440 h1        1 R0_      0.041900
     19 H8          1.7220   -2.9290    6.6320 h1        1 R0_      0.041900
     20 H9         -0.3340   -3.3800    4.7130 h1        1 R0_      0.041900
     21 H10         1.2750   -4.0090    4.2410 h1        1 R0_      0.041900
     22 H11         0.3890   -2.9060    3.1440 h1        1 R0_      0.041900
@<TRIPOS>BOND
     1    1    2 ar  
     2    1    3 ar  
     3    2    4 ar  
     4    3    5 ar  
     5    4    6 ar  
     6    5    6 ar  
     7    6    7 1   
     8    7   10 1   
     9    7   11 2   
    10    8   10 1   
    11    9   10 1   
    12    1   12 1   
    13    2   13 1   
    14    3   14 1   
    15    4   15 1   
    16    5   16 1   
    17    8   17 1   
    18    8   18 1   
    19    8   19 1   
    20    9   20 1   
    21    9   21 1   
    22    9   22 1   
@<TRIPOS>SUBSTRUCTURE
     1 R0_         1 TEMP              0 ****  ****    0 ROOT
