@<TRIPOS>MOLECULE
1,2,3,4-tetrachloro-5-(2,3,4-trichlorophenyl)benzene
   22    23     1     0     0
SMALL
No Charge or Current Charge


@<TRIPOS>ATOM
      1 C1          1.8850   -1.0360   -0.1120 ca        1 <0>     -0.092100
      2 C2          0.8070   -0.4630    0.5610 ca        1 <0>     -0.120600
      3 C3          5.1060   -1.3910   -0.4450 ca        1 <0>     -0.093100
      4 C4          2.9210   -1.6310    0.6080 cp        1 <0>     -0.040600
      5 C5          4.0190   -2.2120   -0.1430 cp        1 <0>     -0.026400
      6 C6          0.7640   -0.4840    1.9550 ca        1 <0>      0.031100
      7 C7          6.1860   -1.9010   -1.1650 ca        1 <0>      0.019100
      8 C8          2.8780   -1.6520    2.0020 ca        1 <0>      0.044100
      9 C9          4.0120   -3.5430   -0.5630 ca        1 <0>      0.040600
     10 C10         1.8000   -1.0790    2.6760 ca        1 <0>      0.013100
     11 C11         6.1790   -3.2310   -1.5840 ca        1 <0>      0.028000
     12 C12         5.0920   -4.0520   -1.2830 ca        1 <0>      0.019100
     13 Cl1        -0.6070    0.2470    2.7170 cl        1 <0>     -0.055900
     14 Cl2         7.4960   -0.8210   -1.5000 cl        1 <0>     -0.051400
     15 Cl3         4.1810   -2.3990    2.8840 cl        1 <0>     -0.045900
     16 Cl4         2.6450   -4.5500   -0.1740 cl        1 <0>     -0.041500
     17 Cl5         1.7360   -1.0990    4.4150 cl        1 <0>     -0.039000
     18 Cl6         7.5340   -3.8520   -2.4840 cl        1 <0>     -0.033800
     19 Cl7         5.0830   -5.7150   -1.8050 cl        1 <0>     -0.034600
     20 H1          1.9010   -1.0100   -1.2000 ha        1 <0>      0.154900
     21 H2          0.0080   -0.0040   -0.0170 ha        1 <0>      0.158100
     22 H3          5.1110   -0.3530   -0.1170 ha        1 <0>      0.166900
@<TRIPOS>BOND
     1    1    2 ar  
     2    1    4 ar  
     3    2    6 ar  
     4    3    5 ar  
     5    3    7 ar  
     6    4    5 1   
     7    4    8 ar  
     8    5    9 ar  
     9    6   10 ar  
    10    6   13 1   
    11    7   11 ar  
    12    7   14 1   
    13    8   10 ar  
    14    8   15 1   
    15    9   12 ar  
    16    9   16 1   
    17   10   17 1   
    18   11   12 ar  
    19   11   18 1   
    20   12   19 1   
    21    1   20 1   
    22    2   21 1   
    23    3   22 1   
@<TRIPOS>SUBSTRUCTURE
     1 <0>         1 TEMP              0 ****  ****    0 ROOT
