@<TRIPOS>MOLECULE
6-chlorouracil
   12    12     1     0     0
SMALL
No Charge or Current Charge


@<TRIPOS>ATOM
      1 C1         -1.8880   -0.5310    2.6100 cc        1 <0>     -0.303600
      2 C2         -1.1990    0.0980    1.6560 cd        1 <0>      0.189900
      3 C3         -1.8930   -2.0150    2.6190 c         1 <0>      0.716700
      4 C4         -0.4360   -1.9430    0.6060 c         1 <0>      0.812100
      5 N1         -0.4960   -0.5590    0.6870 n         1 <0>     -0.475900
      6 N2         -1.1560   -2.6100    1.6030 n         1 <0>     -0.584600
      7 O1         -2.5130   -2.6340    3.4790 o         1 <0>     -0.596200
      8 O2          0.1980   -2.5370   -0.2670 o         1 <0>     -0.625900
      9 Cl1        -1.1160    1.8050    1.5380 cl        1 <0>     -0.047200
     10 H1         -2.4440   -0.0110    3.3800 ha        1 <0>      0.192700
     11 H2          0.0040   -0.0110   -0.0060 hn        1 <0>      0.363700
     12 H3         -1.1380   -3.6250    1.5810 hn        1 <0>      0.358400
@<TRIPOS>BOND
     1    1    2 2   
     2    1    3 1   
     3    2    5 1   
     4    2    9 1   
     5    3    6 1   
     6    3    7 2   
     7    4    5 1   
     8    4    6 1   
     9    4    8 2   
    10    1   10 1   
    11    5   11 1   
    12    6   12 1   
@<TRIPOS>SUBSTRUCTURE
     1 <0>         1 TEMP              0 ****  ****    0 ROOT
