@<TRIPOS>MOLECULE
1_methylcyclohexene
   19    19     1     0     0
SMALL
No Charge or Current Charge


@<TRIPOS>ATOM
      1 C1          1.7770    0.4550   -1.0850 c2        1 R0_     -0.172200
      2 C2          2.2250    1.2890   -2.0400 c2        1 R0_     -0.121100
      3 C3          0.3710   -0.0660   -1.0290 c3        1 R0_     -0.040600
      4 C4          1.3430    1.7500   -3.1740 c3        1 R0_     -0.037800
      5 C5         -0.5880    0.6850   -1.9520 c3        1 R0_     -0.073400
      6 C6          0.0500    0.9430   -3.3120 c3        1 R0_     -0.072900
      7 C7          3.6290    1.8160   -2.0380 c3        1 R0_     -0.053500
      8 H1          2.4520    0.1320   -0.2970 ha        1 R0_      0.119500
      9 H2          0.3860   -1.1290   -1.2960 hc        1 R0_      0.044900
     10 H3         -0.0000    0.0000    0.0000 hc        1 R0_      0.044900
     11 H4          1.0980    2.8070   -3.0140 hc        1 R0_      0.045100
     12 H5          1.8940    1.6870   -4.1210 hc        1 R0_      0.045100
     13 H6         -1.5120    0.1090   -2.0710 hc        1 R0_      0.039000
     14 H7         -0.8670    1.6420   -1.4930 hc        1 R0_      0.039000
     15 H8         -0.6510    1.4780   -3.9630 hc        1 R0_      0.038900
     16 H9          0.2660   -0.0170   -3.7990 hc        1 R0_      0.038900
     17 H10         4.1710    1.4010   -1.1910 hc        1 R0_      0.038700
     18 H11         3.6100    2.9010   -1.9620 hc        1 R0_      0.038700
     19 H12         4.1250    1.5320   -2.9640 hc        1 R0_      0.038700
@<TRIPOS>BOND
     1    1    2 2   
     2    1    3 1   
     3    2    4 1   
     4    2    7 1   
     5    3    5 1   
     6    4    6 1   
     7    5    6 1   
     8    1    8 1   
     9    3    9 1   
    10    3   10 1   
    11    4   11 1   
    12    4   12 1   
    13    5   13 1   
    14    5   14 1   
    15    6   15 1   
    16    6   16 1   
    17    7   17 1   
    18    7   18 1   
    19    7   19 1   
@<TRIPOS>SUBSTRUCTURE
     1 R0_         1 TEMP              0 ****  ****    0 ROOT
