@<TRIPOS>MOLECULE
p_xylene
   18    18     1     0     0
SMALL
No Charge or Current Charge


@<TRIPOS>ATOM
      1 C1          0.8180   -0.4390    0.5640 ca        1 R0_     -0.127300
      2 C2          0.7990   -0.4060    1.9590 ca        1 R0_     -0.127300
      3 C3          2.9370   -1.5970    0.6200 ca        1 R0_     -0.127300
      4 C4          2.9180   -1.5650    2.0140 ca        1 R0_     -0.127300
      5 C5          1.8870   -1.0340   -0.1050 ca        1 R0_     -0.072300
      6 C6          1.8500   -0.9690    2.6840 ca        1 R0_     -0.072300
      7 C7          1.9060   -1.0700   -1.5960 c3        1 R0_     -0.059300
      8 C8          1.8300   -0.9340    4.1740 c3        1 R0_     -0.059300
      9 H1         -0.0050    0.0030    0.0080 ha        1 R0_      0.129700
     10 H2         -0.0370    0.0610    2.4720 ha        1 R0_      0.129700
     11 H3          3.7740   -2.0630    0.1060 ha        1 R0_      0.129700
     12 H4          3.7410   -2.0050    2.5710 ha        1 R0_      0.129700
     13 H5          2.1010   -2.0890   -1.9510 hc        1 R0_      0.042200
     14 H6          0.9490   -0.7320   -2.0150 hc        1 R0_      0.042200
     15 H7          2.6820   -0.4060   -2.0000 hc        1 R0_      0.042200
     16 H8          2.7330   -0.4430    4.5570 hc        1 R0_      0.042200
     17 H9          0.9530   -0.3900    4.5490 hc        1 R0_      0.042200
     18 H10         1.7790   -1.9460    4.5960 hc        1 R0_      0.042200
@<TRIPOS>BOND
     1    1    2 ar  
     2    1    5 ar  
     3    2    6 ar  
     4    3    4 ar  
     5    3    5 ar  
     6    4    6 ar  
     7    5    7 1   
     8    6    8 1   
     9    1    9 1   
    10    2   10 1   
    11    3   11 1   
    12    4   12 1   
    13    7   13 1   
    14    7   14 1   
    15    7   15 1   
    16    8   16 1   
    17    8   17 1   
    18    8   18 1   
@<TRIPOS>SUBSTRUCTURE
     1 R0_         1 TEMP              0 ****  ****    0 ROOT
