@<TRIPOS>MOLECULE
dimethyl_sulfate
   13    12     1     0     0
SMALL
No Charge or Current Charge


@<TRIPOS>ATOM
      1 C1          0.9060    0.5940   -0.1920 c3        1 R0_      0.166100
      2 C2          2.8910    4.6410    2.3340 c3        1 R0_      0.166100
      3 O1          2.4490    3.2410   -0.3600 o         1 R0_     -0.663500
      4 O2          3.4630    1.6800    1.3420 o         1 R0_     -0.663500
      5 O3          1.0190    1.5710    0.8310 os        1 R0_     -0.572800
      6 O4          1.9980    3.5680    2.0770 os        1 R0_     -0.572800
      7 S1          2.3590    2.5050    0.8880 s6        1 R0_      1.833700
      8 H1          1.8790    0.4480   -0.6670 h1        1 R0_      0.051100
      9 H2          0.1720    0.9230   -0.9320 h1        1 R0_      0.051100
     10 H3          0.5750   -0.3480    0.2520 h1        1 R0_      0.051100
     11 H4          2.6070    5.5050    1.7290 h1        1 R0_      0.051100
     12 H5          3.9110    4.3330    2.0910 h1        1 R0_      0.051100
     13 H6          2.8340    4.9050    3.3920 h1        1 R0_      0.051100
@<TRIPOS>BOND
     1    1    5 1   
     2    2    6 1   
     3    3    7 2   
     4    4    7 2   
     5    5    7 1   
     6    6    7 1   
     7    1    8 1   
     8    1    9 1   
     9    1   10 1   
    10    2   11 1   
    11    2   12 1   
    12    2   13 1   
@<TRIPOS>SUBSTRUCTURE
     1 R0_         1 TEMP              0 ****  ****    0 ROOT
