@<TRIPOS>MOLECULE
propene
    9     8     1     0     0
SMALL
No Charge or Current Charge


@<TRIPOS>ATOM
      1 C1          0.8210   -0.6790   -0.2030 c2        1 R0_     -0.225900
      2 C2          1.3490   -1.4450    0.7580 c2        1 R0_     -0.166900
      3 C3          0.8800   -1.4500    2.1740 c3        1 R0_     -0.063500
      4 H1          1.2090   -0.7220   -1.2140 ha        1 R0_      0.110200
      5 H2          0.0000    0.0000    0.0000 ha        1 R0_      0.110200
      6 H3          2.1710   -2.1090    0.5060 ha        1 R0_      0.116500
      7 H4          0.5430   -2.4540    2.4520 hc        1 R0_      0.039900
      8 H5          0.0510   -0.7540    2.3390 hc        1 R0_      0.039900
      9 H6          1.7000   -1.1660    2.8400 hc        1 R0_      0.039900
@<TRIPOS>BOND
     1    1    2 2   
     2    2    3 1   
     3    1    4 1   
     4    1    5 1   
     5    2    6 1   
     6    3    7 1   
     7    3    8 1   
     8    3    9 1   
@<TRIPOS>SUBSTRUCTURE
     1 R0_         1 TEMP              0 ****  ****    0 ROOT
