@<TRIPOS>MOLECULE
4_ethyltoluene
   21    21     1     0     0
SMALL
No Charge or Current Charge


@<TRIPOS>ATOM
      1 C1          0.8180   -0.4390    0.5640 ca        1 R0_     -0.128800
      2 C2          2.9370   -1.5970    0.6200 ca        1 R0_     -0.128800
      3 C3          0.7990   -0.4060    1.9590 ca        1 R0_     -0.124300
      4 C4          2.9180   -1.5650    2.0140 ca        1 R0_     -0.124300
      5 C5          1.8870   -1.0340   -0.1050 ca        1 R0_     -0.071000
      6 C6          1.8500   -0.9690    2.6840 ca        1 R0_     -0.072400
      7 C7          1.9060   -1.0700   -1.5960 c3        1 R0_     -0.059500
      8 C8          2.5000    0.3180    4.7350 c3        1 R0_     -0.086200
      9 C9          1.8300   -0.9340    4.1740 c3        1 R0_     -0.044900
     10 H1         -0.0050    0.0030    0.0080 ha        1 R0_      0.129800
     11 H2          3.7740   -2.0630    0.1060 ha        1 R0_      0.129800
     12 H3         -0.0370    0.0610    2.4720 ha        1 R0_      0.130000
     13 H4          3.7410   -2.0050    2.5710 ha        1 R0_      0.130000
     14 H5          2.1010   -2.0890   -1.9510 hc        1 R0_      0.042300
     15 H6          0.9490   -0.7320   -2.0150 hc        1 R0_      0.042300
     16 H7          2.6820   -0.4060   -2.0000 hc        1 R0_      0.042300
     17 H8          3.5490    0.3750    4.4240 hc        1 R0_      0.034800
     18 H9          2.4700    0.3180    5.8290 hc        1 R0_      0.034800
     19 H10         1.9960    1.2250    4.3820 hc        1 R0_      0.034800
     20 H11         0.7940   -0.9840    4.5460 hc        1 R0_      0.044600
     21 H12         2.3310   -1.8250    4.5860 hc        1 R0_      0.044600
@<TRIPOS>BOND
     1    1    3 ar  
     2    1    5 ar  
     3    2    4 ar  
     4    2    5 ar  
     5    3    6 ar  
     6    4    6 ar  
     7    5    7 1   
     8    6    9 1   
     9    8    9 1   
    10    1   10 1   
    11    2   11 1   
    12    3   12 1   
    13    4   13 1   
    14    7   14 1   
    15    7   15 1   
    16    7   16 1   
    17    8   17 1   
    18    8   18 1   
    19    8   19 1   
    20    9   20 1   
    21    9   21 1   
@<TRIPOS>SUBSTRUCTURE
     1 R0_         1 TEMP              0 ****  ****    0 ROOT
