@<TRIPOS>MOLECULE
2,3,7,8-tetrachlorodibenzo-p-dioxin
   22    24     1     0     0
SMALL
No Charge or Current Charge


@<TRIPOS>ATOM
      1 C1         -3.1490    0.4150    1.2200 ca        1 <0>     -0.106400
      2 C2         -1.4370   -1.5820    0.2690 ca        1 <0>     -0.106100
      3 C3         -6.5290   -2.8210    1.9320 ca        1 <0>     -0.105800
      4 C4         -4.8170   -4.8180    0.9820 ca        1 <0>     -0.105500
      5 C5         -3.5800   -0.9100    1.1630 ca        1 <0>      0.070100
      6 C6         -2.7270   -1.9050    0.6890 ca        1 <0>      0.071700
      7 C7         -5.2390   -2.4980    1.5120 ca        1 <0>      0.071200
      8 C8         -4.3860   -3.4940    1.0380 ca        1 <0>      0.070100
      9 C9         -1.8580    0.7400    0.8000 ca        1 <0>      0.018900
     10 C10        -1.0040   -0.2570    0.3260 ca        1 <0>      0.020500
     11 C11        -6.9620   -4.1460    1.8750 ca        1 <0>      0.019600
     12 C12        -6.1070   -5.1430    1.4010 ca        1 <0>      0.019200
     13 O1         -4.8560   -1.1830    1.5850 os        1 <0>     -0.212600
     14 O2         -3.1090   -3.2200    0.6160 os        1 <0>     -0.213700
     15 Cl1        -1.3750    2.3980    0.8940 cl        1 <0>     -0.052200
     16 Cl2         0.6050    0.0880   -0.2070 cl        1 <0>     -0.052700
     17 Cl3        -8.5700   -4.4910    2.4080 cl        1 <0>     -0.052900
     18 Cl4        -6.5900   -6.8010    1.3090 cl        1 <0>     -0.053400
     19 H1         -3.8220    1.1840    1.5920 ha        1 <0>      0.174600
     20 H2         -0.7790   -2.3670   -0.0970 ha        1 <0>      0.174700
     21 H3         -7.1860   -2.0380    2.3010 ha        1 <0>      0.175200
     22 H4         -4.1440   -5.5880    0.6100 ha        1 <0>      0.175600
@<TRIPOS>BOND
     1    1    5 ar  
     2    1    9 ar  
     3    2    6 ar  
     4    2   10 ar  
     5    3    7 ar  
     6    3   11 ar  
     7    4    8 ar  
     8    4   12 ar  
     9    5    6 ar  
    10    5   13 ar  
    11    6   14 ar  
    12    7    8 ar  
    13    7   13 ar  
    14    8   14 ar  
    15    9   10 ar  
    16    9   15 1   
    17   10   16 1   
    18   11   12 ar  
    19   11   17 1   
    20   12   18 1   
    21    1   19 1   
    22    2   20 1   
    23    3   21 1   
    24    4   22 1   
@<TRIPOS>SUBSTRUCTURE
     1 <0>         1 TEMP              0 ****  ****    0 ROOT
