@<TRIPOS>MOLECULE
4_methoxyacetophenone
   21    21     1     0     0
SMALL
No Charge or Current Charge


@<TRIPOS>ATOM
      1 C1          0.8180   -0.4390    0.5640 ca        1 R0_     -0.047900
      2 C2          2.9370   -1.5970    0.6200 ca        1 R0_     -0.047900
      3 C3          0.7990   -0.4060    1.9590 ca        1 R0_     -0.197800
      4 C4          2.9180   -1.5650    2.0140 ca        1 R0_     -0.197800
      5 C5          1.8870   -1.0340   -0.1050 ca        1 R0_     -0.213700
      6 C6          1.8500   -0.9690    2.6840 ca        1 R0_      0.154400
      7 C7          1.9050   -1.0680   -1.5590 c         1 R0_      0.577000
      8 C8          0.7590   -0.4550   -2.3570 c3        1 R0_     -0.193500
      9 C9          0.7070   -0.3160    4.6650 c3        1 R0_      0.115400
     10 O1          2.8470   -1.5930   -2.1860 o         1 R0_     -0.540700
     11 O2          1.8310   -0.9390    4.0440 os        1 R0_     -0.324600
     12 H1         -0.0060    0.0040    0.0090 ha        1 R0_      0.147000
     13 H2          3.7740   -2.0650    0.1080 ha        1 R0_      0.147000
     14 H3         -0.0370    0.0580    2.4750 ha        1 R0_      0.147800
     15 H4          3.7400   -2.0050    2.5730 ha        1 R0_      0.147800
     16 H5          0.6980    0.6160   -2.1500 hc        1 R0_      0.062600
     17 H6         -0.1780   -0.9580   -2.1040 hc        1 R0_      0.062600
     18 H7          0.9310   -0.5840   -3.4300 hc        1 R0_      0.062600
     19 H8         -0.1110   -1.0360    4.7450 h1        1 R0_      0.046600
     20 H9          0.3920    0.5450    4.0690 h1        1 R0_      0.046600
     21 H10         0.9940    0.0200    5.6640 h1        1 R0_      0.046600
@<TRIPOS>BOND
     1    1    3 ar  
     2    1    5 ar  
     3    2    4 ar  
     4    2    5 ar  
     5    3    6 ar  
     6    4    6 ar  
     7    5    7 1   
     8    6   11 1   
     9    7    8 1   
    10    7   10 2   
    11    9   11 1   
    12    1   12 1   
    13    2   13 1   
    14    3   14 1   
    15    4   15 1   
    16    8   16 1   
    17    8   17 1   
    18    8   18 1   
    19    9   19 1   
    20    9   20 1   
    21    9   21 1   
@<TRIPOS>SUBSTRUCTURE
     1 R0_         1 TEMP              0 ****  ****    0 ROOT
