@<TRIPOS>MOLECULE
acetaldehyde
    7     6     1     0     0
SMALL
No Charge or Current Charge


@<TRIPOS>ATOM
      1 C1         -1.5030   -0.9600    1.1510 c         1 R0_      0.558100
      2 C2         -0.5890   -0.9200   -0.0340 c3        1 R0_     -0.217000
      3 O1         -1.4760   -1.8490    1.9960 o         1 R0_     -0.523500
      4 H1         -2.2230   -0.1270    1.2270 h4        1 R0_     -0.009100
      5 H2          0.0000    0.0000    0.0000 hc        1 R0_      0.063900
      6 H3          0.0830   -1.7820   -0.0190 hc        1 R0_      0.063900
      7 H4         -1.1870   -0.9400   -0.9480 hc        1 R0_      0.063900
@<TRIPOS>BOND
     1    1    2 1   
     2    1    3 2   
     3    1    4 1   
     4    2    5 1   
     5    2    6 1   
     6    2    7 1   
@<TRIPOS>SUBSTRUCTURE
     1 R0_         1 TEMP              0 ****  ****    0 ROOT
