@<TRIPOS>MOLECULE
pent_1_ene
   15    14     1     0     0
SMALL
No Charge or Current Charge


@<TRIPOS>ATOM
      1 C1          0.7310   -0.6920    0.4150 c2        1 R0_     -0.225800
      2 C2          1.0740   -1.7920   -0.2650 c2        1 R0_     -0.163600
      3 C3         -0.5140   -3.6830   -3.2190 c3        1 R0_     -0.090400
      4 C4          0.6550   -2.0680   -1.6790 c3        1 R0_     -0.048500
      5 C5         -0.1110   -3.3860   -1.7830 c3        1 R0_     -0.074400
      6 H1          1.0570   -0.5320    1.4380 ha        1 R0_      0.110500
      7 H2          0.1150    0.0700   -0.0480 ha        1 R0_      0.110500
      8 H3          1.7030   -2.5320    0.2230 ha        1 R0_      0.116700
      9 H4         -1.1620   -2.8950   -3.6160 hc        1 R0_      0.032400
     10 H5         -1.0600   -4.6300   -3.2710 hc        1 R0_      0.032400
     11 H6          0.3660   -3.7630   -3.8650 hc        1 R0_      0.032400
     12 H7          0.0360   -1.2500   -2.0670 hc        1 R0_      0.044900
     13 H8          1.5550   -2.1100   -2.3050 hc        1 R0_      0.044900
     14 H9         -1.0120   -3.3470   -1.1590 hc        1 R0_      0.038900
     15 H10         0.5050   -4.2120   -1.4070 hc        1 R0_      0.038900
@<TRIPOS>BOND
     1    1    2 2   
     2    2    4 1   
     3    3    5 1   
     4    4    5 1   
     5    1    6 1   
     6    1    7 1   
     7    2    8 1   
     8    3    9 1   
     9    3   10 1   
    10    3   11 1   
    11    4   12 1   
    12    4   13 1   
    13    5   14 1   
    14    5   15 1   
@<TRIPOS>SUBSTRUCTURE
     1 R0_         1 TEMP              0 ****  ****    0 ROOT
