@<TRIPOS>MOLECULE
SAMPL4_029
   23    22     1     0     0
SMALL
bcc


@<TRIPOS>ATOM
      1 C1         -7.7170    4.9230   -1.8210 c3        1 TMP     -0.093100
      2 C2         -6.9160    3.6580   -2.0940 c3        1 TMP     -0.080400
      3 C3         -6.8860    2.7420   -0.8700 c3        1 TMP     -0.079400
      4 C4         -6.0320    1.4870   -1.0700 c3        1 TMP     -0.078400
      5 C5         -6.0220    0.5600    0.1440 c3        1 TMP     -0.087400
      6 C6         -5.1340   -0.6560   -0.0890 c3        1 TMP      0.133400
      7 N1         -4.3780   -2.6560    0.9540 no        1 TMP      0.377200
      8 O1         -4.4250   -3.3640    1.9610 o         1 TMP     -0.184500
      9 O2         -3.7530   -2.8230   -0.0950 o         1 TMP     -0.184500
     10 O3         -5.1780   -1.4840    1.0650 os        1 TMP     -0.350000
     11 H1         -8.7420    4.6680   -1.5350 hc        1 TMP      0.035033
     12 H2         -7.2700    5.5010   -1.0050 hc        1 TMP      0.035033
     13 H3         -7.7610    5.5600   -2.7100 hc        1 TMP      0.035033
     14 H4         -5.8940    3.9350   -2.3780 hc        1 TMP      0.039700
     15 H5         -7.3640    3.1390   -2.9480 hc        1 TMP      0.039700
     16 H6         -7.9090    2.4520   -0.5990 hc        1 TMP      0.043700
     17 H7         -6.4800    3.3000   -0.0170 hc        1 TMP      0.043700
     18 H8         -5.0040    1.8050   -1.2850 hc        1 TMP      0.044700
     19 H9         -6.3840    0.9390   -1.9520 hc        1 TMP      0.044700
     20 H10        -7.0360    0.2170    0.3810 hc        1 TMP      0.064700
     21 H11        -5.6710    1.1000    1.0330 hc        1 TMP      0.064700
     22 H12        -5.4850   -1.2360   -0.9480 h1        1 TMP      0.067700
     23 H13        -4.0960   -0.3550   -0.2620 h1        1 TMP      0.067700
@<TRIPOS>BOND
     1    1    2 1   
     2    2    3 1   
     3    3    4 1   
     4    4    5 1   
     5    5    6 1   
     6    6   10 1   
     7    7    8 1   
     8    7    9 1   
     9    7   10 1   
    10    1   11 1   
    11    1   12 1   
    12    1   13 1   
    13    2   14 1   
    14    2   15 1   
    15    3   16 1   
    16    3   17 1   
    17    4   18 1   
    18    4   19 1   
    19    5   20 1   
    20    5   21 1   
    21    6   22 1   
    22    6   23 1   
@<TRIPOS>SUBSTRUCTURE
     1 TMP         1 TEMP              0 ****  ****    0 ROOT
