@<TRIPOS>MOLECULE
alpha_methylstyrene
   19    19     1     0     0
SMALL
No Charge or Current Charge


@<TRIPOS>ATOM
      1 C1          1.8850   -1.0380   -0.1090 ca        1 R0_     -0.128800
      2 C2          0.8180   -0.4410    0.5630 ca        1 R0_     -0.131100
      3 C3          2.9350   -1.6040    0.6140 ca        1 R0_     -0.131100
      4 C4          0.8010   -0.4100    1.9570 ca        1 R0_     -0.119800
      5 C5          2.9180   -1.5730    2.0080 ca        1 R0_     -0.119800
      6 C6          1.8510   -0.9770    2.6800 ca        1 R0_     -0.052800
      7 C7          1.2300    0.0520    4.8340 c2        1 R0_     -0.214400
      8 C8          1.8330   -0.9450    4.1340 ce        1 R0_     -0.063500
      9 C9          2.5270   -2.0550    4.9040 c3        1 R0_     -0.056500
     10 H1          1.8980   -1.0610   -1.1950 ha        1 R0_      0.130700
     11 H2         -0.0000   -0.0000   -0.0000 ha        1 R0_      0.130800
     12 H3          3.7650   -2.0680    0.0900 ha        1 R0_      0.130800
     13 H4         -0.0380    0.0580    2.4660 ha        1 R0_      0.133200
     14 H5          3.7440   -2.0190    2.5580 ha        1 R0_      0.133200
     15 H6          1.2260    0.0720    5.9200 ha        1 R0_      0.115200
     16 H7          0.7390    0.8810    4.3350 ha        1 R0_      0.115200
     17 H8          3.6150   -1.9660    4.8160 hc        1 R0_      0.042900
     18 H9          2.2190   -3.0320    4.5150 hc        1 R0_      0.042900
     19 H10         2.2850   -2.0440    5.9720 hc        1 R0_      0.042900
@<TRIPOS>BOND
     1    1    2 ar  
     2    1    3 ar  
     3    2    4 ar  
     4    3    5 ar  
     5    4    6 ar  
     6    5    6 ar  
     7    6    8 1   
     8    7    8 2   
     9    8    9 1   
    10    1   10 1   
    11    2   11 1   
    12    3   12 1   
    13    4   13 1   
    14    5   14 1   
    15    7   15 1   
    16    7   16 1   
    17    9   17 1   
    18    9   18 1   
    19    9   19 1   
@<TRIPOS>SUBSTRUCTURE
     1 R0_         1 TEMP              0 ****  ****    0 ROOT
