@<TRIPOS>MOLECULE
pyridine
   11    11     1     0     0
SMALL
No Charge or Current Charge


@<TRIPOS>ATOM
      1 C1          1.2860   -0.0600    1.7330 ca        1 R0_     -0.093200
      2 C2          0.1840   -0.4390    0.9740 ca        1 R0_     -0.246600
      3 C3          1.4970   -0.6400    2.9790 ca        1 R0_     -0.246600
      4 C4         -0.6700   -1.3940    1.5010 ca        1 R0_      0.393000
      5 C5          0.5840   -1.5860    3.4170 ca        1 R0_      0.393000
      6 N1         -0.4980   -1.9790    2.7080 nb        1 R0_     -0.665200
      7 H1          1.9790    0.6850    1.3550 ha        1 R0_      0.137400
      8 H2          0.0000   -0.0000   -0.0010 ha        1 R0_      0.142700
      9 H3          2.3490   -0.3600    3.5880 ha        1 R0_      0.142700
     10 H4         -1.5430   -1.7240    0.9480 h4        1 R0_      0.021500
     11 H5          0.7030   -2.0680    4.3820 h4        1 R0_      0.021500
@<TRIPOS>BOND
     1    1    2 ar  
     2    1    3 ar  
     3    2    4 ar  
     4    3    5 ar  
     5    4    6 ar  
     6    5    6 ar  
     7    1    7 1   
     8    2    8 1   
     9    3    9 1   
    10    4   10 1   
    11    5   11 1   
@<TRIPOS>SUBSTRUCTURE
     1 R0_         1 TEMP              0 ****  ****    0 ROOT
