@<TRIPOS>MOLECULE
o_toluidine
   17    17     1     0     0
SMALL
No Charge or Current Charge


@<TRIPOS>ATOM
      1 C1          1.8850   -1.0380   -0.1090 ca        1 R0_     -0.170500
      2 C2          0.8180   -0.4410    0.5630 ca        1 R0_     -0.096500
      3 C3          2.9350   -1.6040    0.6140 ca        1 R0_     -0.093500
      4 C4          0.8010   -0.4100    1.9570 ca        1 R0_     -0.190800
      5 C5          2.9180   -1.5730    2.0080 ca        1 R0_     -0.128100
      6 C6          1.8510   -0.9770    2.6800 ca        1 R0_      0.141300
      7 C7          4.0560   -2.1880    2.7570 c3        1 R0_     -0.053700
      8 N1          1.8170   -0.9360    4.0910 nh        1 R0_     -0.822600
      9 H1          1.8980   -1.0610   -1.1950 ha        1 R0_      0.130400
     10 H2          0.0000   -0.0000   -0.0000 ha        1 R0_      0.128600
     11 H3          3.7610   -2.0660    0.0810 ha        1 R0_      0.128400
     12 H4         -0.0360    0.0570    2.4690 ha        1 R0_      0.129700
     13 H5          4.5590   -1.4310    3.3690 hc        1 R0_      0.039700
     14 H6          3.7080   -2.9950    3.4130 hc        1 R0_      0.039700
     15 H7          4.7900   -2.6270    2.0700 hc        1 R0_      0.039700
     16 H8          2.4100   -1.5500    4.6090 hn        1 R0_      0.389100
     17 H9          1.1340   -0.3640    4.5450 hn        1 R0_      0.389100
@<TRIPOS>BOND
     1    1    2 ar  
     2    1    3 ar  
     3    2    4 ar  
     4    3    5 ar  
     5    4    6 ar  
     6    5    6 ar  
     7    5    7 1   
     8    6    8 1   
     9    1    9 1   
    10    2   10 1   
    11    3   11 1   
    12    4   12 1   
    13    7   13 1   
    14    7   14 1   
    15    7   15 1   
    16    8   16 1   
    17    8   17 1   
@<TRIPOS>SUBSTRUCTURE
     1 R0_         1 TEMP              0 ****  ****    0 ROOT
