@<TRIPOS>MOLECULE
NN_dimethylaniline
   20    20     1     0     0
SMALL
No Charge or Current Charge


@<TRIPOS>ATOM
      1 C1          1.8850   -1.0380   -0.1090 ca        1 R0_     -0.185600
      2 C2          0.8180   -0.4410    0.5630 ca        1 R0_     -0.087900
      3 C3          2.9350   -1.6040    0.6140 ca        1 R0_     -0.087900
      4 C4          0.8010   -0.4100    1.9570 ca        1 R0_     -0.206200
      5 C5          2.9180   -1.5730    2.0080 ca        1 R0_     -0.206200
      6 C6          1.8510   -0.9770    2.6800 ca        1 R0_      0.199800
      7 C7          0.5750   -0.9580    4.8090 c3        1 R0_      0.222400
      8 C8          3.0750   -0.9180    4.8380 c3        1 R0_      0.222400
      9 N1          1.8340   -0.9470    4.0900 nh        1 R0_     -0.710800
     10 H1          1.8970   -1.0610   -1.1950 ha        1 R0_      0.129200
     11 H2          0.0000   -0.0000   -0.0010 ha        1 R0_      0.126100
     12 H3          3.7650   -2.0680    0.0910 ha        1 R0_      0.126100
     13 H4         -0.0360    0.0560    2.4700 ha        1 R0_      0.130000
     14 H5          3.7420   -2.0180    2.5610 ha        1 R0_      0.130000
     15 H6          0.1060    0.0280    4.7600 h1        1 R0_      0.033100
     16 H7          0.7420   -1.2160    5.8580 h1        1 R0_      0.033100
     17 H8         -0.1040   -1.6930    4.3700 h1        1 R0_      0.033100
     18 H9          2.9530   -0.3190    5.7450 h1        1 R0_      0.033100
     19 H10         3.8720   -0.4810    4.2320 h1        1 R0_      0.033100
     20 H11         3.3670   -1.9320    5.1240 h1        1 R0_      0.033100
@<TRIPOS>BOND
     1    1    2 ar  
     2    1    3 ar  
     3    2    4 ar  
     4    3    5 ar  
     5    4    6 ar  
     6    5    6 ar  
     7    6    9 1   
     8    7    9 1   
     9    8    9 1   
    10    1   10 1   
    11    2   11 1   
    12    3   12 1   
    13    4   13 1   
    14    5   14 1   
    15    7   15 1   
    16    7   16 1   
    17    7   17 1   
    18    8   18 1   
    19    8   19 1   
    20    8   20 1   
@<TRIPOS>SUBSTRUCTURE
     1 R0_         1 TEMP              0 ****  ****    0 ROOT
