@<TRIPOS>MOLECULE
n_pentyl_acetate
   23    22     1     0     0
SMALL
No Charge or Current Charge


@<TRIPOS>ATOM
      1 C1          5.2400   -2.0410   -5.0250 c         1 R0_      0.630700
      2 C2          5.9980   -3.2190   -5.5570 c3        1 R0_     -0.146000
      3 C3          0.8520   -0.3690    0.6910 c3        1 R0_     -0.089600
      4 C4          1.6510   -1.4310   -0.0470 c3        1 R0_     -0.078300
      5 C5          2.2940   -0.8690   -1.3150 c3        1 R0_     -0.076200
      6 C6          3.1240   -1.9290   -2.0350 c3        1 R0_     -0.089200
      7 C7          3.8010   -1.3660   -3.2760 c3        1 R0_      0.140200
      8 O1          5.2380   -0.9340   -5.5470 o         1 R0_     -0.542800
      9 O2          4.5660   -2.3950   -3.8880 os        1 R0_     -0.446100
     10 H1          5.3030   -4.0230   -5.8130 hc        1 R0_      0.074300
     11 H2          6.7240   -3.5590   -4.8140 hc        1 R0_      0.074300
     12 H3          6.5380   -2.9240   -6.4620 hc        1 R0_      0.074300
     13 H4          1.4920    0.4680    0.9890 hc        1 R0_      0.032200
     14 H5          0.0450    0.0220    0.0620 hc        1 R0_      0.032200
     15 H6          0.4030   -0.7920    1.5950 hc        1 R0_      0.032200
     16 H7          0.9890   -2.2660   -0.3040 hc        1 R0_      0.038100
     17 H8          2.4270   -1.8250    0.6200 hc        1 R0_      0.038100
     18 H9          1.5130   -0.4940   -1.9880 hc        1 R0_      0.043800
     19 H10         2.9330   -0.0160   -1.0550 hc        1 R0_      0.043800
     20 H11         2.4900   -2.7780   -2.3210 hc        1 R0_      0.052000
     21 H12         3.8850   -2.3390   -1.3590 hc        1 R0_      0.052000
     22 H13         4.4730   -0.5420   -3.0150 h1        1 R0_      0.055000
     23 H14         3.0600   -1.0070   -3.9970 h1        1 R0_      0.055000
@<TRIPOS>BOND
     1    1    2 1   
     2    1    8 2   
     3    1    9 1   
     4    3    4 1   
     5    4    5 1   
     6    5    6 1   
     7    6    7 1   
     8    7    9 1   
     9    2   10 1   
    10    2   11 1   
    11    2   12 1   
    12    3   13 1   
    13    3   14 1   
    14    3   15 1   
    15    4   16 1   
    16    4   17 1   
    17    5   18 1   
    18    5   19 1   
    19    6   20 1   
    20    6   21 1   
    21    7   22 1   
    22    7   23 1   
@<TRIPOS>SUBSTRUCTURE
     1 R0_         1 TEMP              0 ****  ****    0 ROOT
