@<TRIPOS>MOLECULE
SAMPL4_006
   26    26     1     0     0
SMALL
bcc


@<TRIPOS>ATOM
      1 C1          3.1270   -1.5820    0.4800 ca        1 TMP     -0.123000
      2 C2          1.8630   -1.0540    0.2180 ca        1 TMP     -0.187000
      3 C3          2.7050   -1.4120    2.8530 ca        1 TMP     -0.174000
      4 C4          3.5480   -1.7610    1.7980 ca        1 TMP     -0.076300
      5 C5          1.0200   -0.7050    1.2720 ca        1 TMP      0.099100
      6 C6          1.4410   -0.8840    2.5900 ca        1 TMP      0.103100
      7 C7          6.2540   -4.4400    2.4350 c3        1 TMP     -0.094100
      8 C8          1.1320   -0.7610    4.9450 c3        1 TMP      0.110700
      9 C9          4.8980   -2.3280    2.0790 c3        1 TMP     -0.034100
     10 C10         4.8710   -3.8610    2.1830 c3        1 TMP     -0.077400
     11 O1         -0.2120   -0.1900    1.0020 oh        1 TMP     -0.476100
     12 O2          0.6260   -0.5460    3.6290 os        1 TMP     -0.304900
     13 H1          3.7770   -1.8520   -0.3480 ha        1 TMP      0.134000
     14 H2          1.5420   -0.9160   -0.8110 ha        1 TMP      0.135000
     15 H3          3.0300   -1.5520    3.8810 ha        1 TMP      0.140000
     16 H4          6.9510   -4.1520    1.6410 hc        1 TMP      0.033700
     17 H5          6.6580   -4.0900    3.3910 hc        1 TMP      0.033700
     18 H6          6.2080   -5.5330    2.4660 hc        1 TMP      0.033700
     19 H7          0.3840   -0.4500    5.6790 h1        1 TMP      0.043367
     20 H8          2.0520   -0.1870    5.0810 h1        1 TMP      0.043367
     21 H9          1.3460   -1.8250    5.0750 h1        1 TMP      0.043367
     22 H10         5.6140   -2.0330    1.2930 hc        1 TMP      0.047200
     23 H11         5.3060   -1.9120    3.0160 hc        1 TMP      0.047200
     24 H12         4.2000   -4.1680    2.9940 hc        1 TMP      0.043200
     25 H13         4.4660   -4.2900    1.2580 hc        1 TMP      0.043200
     26 H14        -0.3470   -0.1300    0.0440 ho        1 TMP      0.413000
@<TRIPOS>BOND
     1    1    2 ar  
     2    1    4 ar  
     3    2    5 ar  
     4    3    4 ar  
     5    3    6 ar  
     6    4    9 1   
     7    5    6 ar  
     8    5   11 1   
     9    6   12 1   
    10    7   10 1   
    11    8   12 1   
    12    9   10 1   
    13    1   13 1   
    14    2   14 1   
    15    3   15 1   
    16    7   16 1   
    17    7   17 1   
    18    7   18 1   
    19    8   19 1   
    20    8   20 1   
    21    8   21 1   
    22    9   22 1   
    23    9   23 1   
    24   10   24 1   
    25   10   25 1   
    26   11   26 1   
@<TRIPOS>SUBSTRUCTURE
     1 TMP         1 TEMP              0 ****  ****    0 ROOT
