@<TRIPOS>MOLECULE
ZINC00901022
   16    16     0     0     0
SMALL
USER_CHARGES
2-methylphenol
@<TRIPOS>ATOM
      1 C1          0.3701    0.5444   -2.7474 C.3       1 <0>         0.1435
      2 C2          0.0704    1.0592   -1.3698 C.ar      1 <0>        -0.1435
      3 C3         -1.2330    0.9547   -0.8611 C.ar      1 <0>        -0.1500
      4 C4         -1.5423    1.4248    0.4174 C.ar      1 <0>        -0.1500
      5 C5         -0.5525    2.0064    1.2058 C.ar      1 <0>        -0.1500
      6 C6          0.7470    2.1183    0.7167 C.ar      1 <0>        -0.1500
      7 C7          1.0538    1.6476   -0.5617 C.ar      1 <0>         0.0825
      8 O1          2.3524    1.7944   -0.9688 O.3       1 <0>        -0.5325
      9 H1          2.4551    1.4366   -1.8651 H         1 <0>         0.4500
     10 H2         -0.5211    0.1210   -3.2228 H         1 <0>         0.0000
     11 H3          0.7300    1.3574   -3.3861 H         1 <0>         0.0000
     12 H4          1.1261   -0.2460   -2.7006 H         1 <0>         0.0000
     13 H5         -2.0223    0.5043   -1.4586 H         1 <0>         0.1500
     14 H6         -2.5565    1.3364    0.7966 H         1 <0>         0.1500
     15 H7         -0.7930    2.3719    2.1998 H         1 <0>         0.1500
     16 H8          1.5173    2.5725    1.3339 H         1 <0>         0.1500
@<TRIPOS>BOND
     1    1    2 1
     2    1   10 1
     3    1   11 1
     4    1   12 1
     5    2    7 ar
     6    2    3 ar
     7    3    4 ar
     8    3   13 1
     9    4    5 ar
    10    4   14 1
    11    5    6 ar
    12    5   15 1
    13    6    7 ar
    14    6   16 1
    15    7    8 1
    16    8    9 1
