@<TRIPOS>MOLECULE
n_butylacetamide
   21    20     1     0     0
SMALL
No Charge or Current Charge


@<TRIPOS>ATOM
      1 C1          5.0480    2.2070   -4.6740 c         1 R0_      0.653300
      2 C2          1.0830   -0.0250   -0.1890 c3        1 R0_     -0.090200
      3 C3          4.6980    1.4240   -3.4220 c3        1 R0_     -0.148900
      4 C4          1.4170    0.8020   -1.4200 c3        1 R0_     -0.076800
      5 C5          3.2250    1.5210   -3.0300 c3        1 R0_     -0.072100
      6 C6          2.8890    0.6630   -1.8060 c3        1 R0_     -0.078200
      7 N1          6.3820    2.1010   -5.0030 n         1 R0_     -0.681600
      8 O1          4.2330    2.8450   -5.3350 o         1 R0_     -0.607800
      9 H1          1.2790   -1.0880   -0.3650 hc        1 R0_      0.033000
     10 H2          0.0240    0.0870    0.0670 hc        1 R0_      0.033000
     11 H3          1.6770    0.2960    0.6720 hc        1 R0_      0.033000
     12 H4          4.9420    0.3740   -3.6240 hc        1 R0_      0.062500
     13 H5          5.3360    1.7580   -2.5950 hc        1 R0_      0.062500
     14 H6          1.1820    1.8540   -1.2210 hc        1 R0_      0.036900
     15 H7          0.7810    0.4800   -2.2530 hc        1 R0_      0.036900
     16 H8          2.9500    2.5660   -2.8390 hc        1 R0_      0.051000
     17 H9          2.6170    1.1820   -3.8780 hc        1 R0_      0.051000
     18 H10         3.1130   -0.3890   -2.0240 hc        1 R0_      0.042500
     19 H11         3.5170    0.9560   -0.9570 hc        1 R0_      0.042500
     20 H12         6.7220    2.5820   -5.8300 hn        1 R0_      0.308800
     21 H13         7.0370    1.5580   -4.4490 hn        1 R0_      0.308800
@<TRIPOS>BOND
     1    1    3 1   
     2    1    7 1   
     3    1    8 2   
     4    2    4 1   
     5    3    5 1   
     6    4    6 1   
     7    5    6 1   
     8    2    9 1   
     9    2   10 1   
    10    2   11 1   
    11    3   12 1   
    12    3   13 1   
    13    4   14 1   
    14    4   15 1   
    15    5   16 1   
    16    5   17 1   
    17    6   18 1   
    18    6   19 1   
    19    7   20 1   
    20    7   21 1   
@<TRIPOS>SUBSTRUCTURE
     1 R0_         1 TEMP              0 ****  ****    0 ROOT
