@<TRIPOS>MOLECULE
3_acetylpyridine
   16    16     1     0     0
SMALL
No Charge or Current Charge


@<TRIPOS>ATOM
      1 C1          0.2060   -0.4420    0.9680 ca        1 R0_     -0.261000
      2 C2          1.3350   -0.0800    1.6950 ca        1 R0_     -0.046500
      3 C3         -0.6460   -1.3850    1.5200 ca        1 R0_      0.420700
      4 C4          0.6600   -1.5970    3.3980 ca        1 R0_      0.441400
      5 C5          1.5730   -0.6640    2.9340 ca        1 R0_     -0.294700
      6 C6          2.7430   -0.3060    3.7180 c         1 R0_      0.577900
      7 C7          2.9890   -0.9570    5.0760 c3        1 R0_     -0.194500
      8 N1         -0.4480   -1.9740    2.7210 nb        1 R0_     -0.673000
      9 O1          3.5710    0.5320    3.3080 o         1 R0_     -0.529800
     10 H1         -0.0000    0.0000    0.0000 ha        1 R0_      0.148800
     11 H2          2.0210    0.6570    1.2880 ha        1 R0_      0.151700
     12 H3         -1.5400   -1.7010    0.9930 h4        1 R0_      0.026400
     13 H4          0.7920   -2.0860    4.3590 h4        1 R0_      0.036200
     14 H5          3.1140   -2.0360    4.9510 hc        1 R0_      0.065400
     15 H6          2.1560   -0.7340    5.7480 hc        1 R0_      0.065400
     16 H7          3.9030   -0.5610    5.5290 hc        1 R0_      0.065400
@<TRIPOS>BOND
     1    1    2 ar  
     2    1    3 ar  
     3    2    5 ar  
     4    3    8 ar  
     5    4    5 ar  
     6    4    8 ar  
     7    5    6 1   
     8    6    7 1   
     9    6    9 2   
    10    1   10 1   
    11    2   11 1   
    12    3   12 1   
    13    4   13 1   
    14    7   14 1   
    15    7   15 1   
    16    7   16 1   
@<TRIPOS>SUBSTRUCTURE
     1 R0_         1 TEMP              0 ****  ****    0 ROOT
