@<TRIPOS>MOLECULE
CUP08002_AM1BCC_v1_0
   17    16     1     0     0
SMALL
No Charge or Current Charge


@<TRIPOS>ATOM
      1 C1         -0.4100    0.8710    0.5830 c3        1 R0_     -0.125300
      2 C2         -0.8980    1.6180    2.9260 c3        1 R0_      0.129300
      3 C3         -0.1800    0.5710    2.0620 c3        1 R0_      0.147000
      4 N1         -1.1460    2.3140    5.1730 no        1 R0_      0.382000
      5 N2          0.1120   -1.7990    2.1710 no        1 R0_      0.383300
      6 O1         -0.8320    2.1280    6.3460 o         1 R0_     -0.171000
      7 O2         -1.8900    3.1600    4.6750 o         1 R0_     -0.171000
      8 O3         -0.4000   -2.8720    2.4860 o         1 R0_     -0.174600
      9 O4          1.2250   -1.5620    1.7020 o         1 R0_     -0.174600
     10 O5         -0.5270    1.3980    4.2880 os        1 R0_     -0.357600
     11 O6         -0.7550   -0.7000    2.3850 os        1 R0_     -0.359000
     12 H1         -1.4780    0.8310    0.3380 hc        1 R0_      0.065200
     13 H2         -0.0270    1.8610    0.3160 hc        1 R0_      0.065200
     14 H3          0.0840    0.1300   -0.0530 hc        1 R0_      0.065200
     15 H4         -0.5880    2.6240    2.6160 h1        1 R0_      0.092600
     16 H5         -1.9840    1.5020    2.8180 h1        1 R0_      0.092600
     17 H6          0.8870    0.6130    2.3140 h1        1 R0_      0.110800
@<TRIPOS>BOND
     1    1    3 1   
     2    2    3 1   
     3    2   10 1   
     4    3   11 1   
     5    4    6 1   
     6    4    7 1   
     7    4   10 1   
     8    5    8 1   
     9    5    9 1   
    10    5   11 1   
    11    1   12 1   
    12    1   13 1   
    13    1   14 1   
    14    2   15 1   
    15    2   16 1   
    16    3   17 1   
@<TRIPOS>SUBSTRUCTURE
     1 R0_         1 TEMP              0 ****  ****    0 ROOT
