@<TRIPOS>MOLECULE
5-iodouracil
   12    12     1     0     0
SMALL
No Charge or Current Charge


@<TRIPOS>ATOM
      1 C1         -1.5240    0.5120    1.2700 cc        1 <0>      0.093900
      2 C2         -2.6200    0.1500    1.9480 cd        1 <0>     -0.196100
      3 C3         -3.0940   -1.2620    1.8360 c         1 <0>      0.730000
      4 C4         -1.1750   -1.6840    0.3080 c         1 <0>      0.803400
      5 N1         -0.8210   -0.3560    0.4810 n         1 <0>     -0.466800
      6 N2         -2.3170   -2.0710    1.0120 n         1 <0>     -0.582500
      7 O1         -4.0890   -1.6730    2.4260 o         1 <0>     -0.586000
      8 O2         -0.5380   -2.4600   -0.4050 o         1 <0>     -0.626100
      9 I1         -3.6560    1.4670    3.1240 i         1 <0>     -0.060200
     10 H1         -1.1190    1.5180    1.3010 h4        1 <0>      0.173300
     11 H2         -0.0000    0.0000   -0.0000 hn        1 <0>      0.358700
     12 H3         -2.6100   -3.0390    0.9120 hn        1 <0>      0.358400
@<TRIPOS>BOND
     1    1    2 2   
     2    1    5 1   
     3    2    3 1   
     4    2    9 1   
     5    3    6 1   
     6    3    7 2   
     7    4    5 1   
     8    4    6 1   
     9    4    8 2   
    10    1   10 1   
    11    5   11 1   
    12    6   12 1   
@<TRIPOS>SUBSTRUCTURE
     1 <0>         1 TEMP              0 ****  ****    0 ROOT
