@<TRIPOS>MOLECULE
E_hept_2_ene
   21    20     1     0     0
SMALL
No Charge or Current Charge


@<TRIPOS>ATOM
      1 C1          1.4390    1.3910   -0.6400 c2        1 R0_     -0.174400
      2 C2          1.0590    0.2350   -0.0760 c2        1 R0_     -0.171100
      3 C3          0.4860    2.3970   -1.1950 c3        1 R0_     -0.059500
      4 C4          2.5670   -2.2830    4.0330 c3        1 R0_     -0.089400
      5 C5          2.0180   -0.7780    0.4790 c3        1 R0_     -0.045600
      6 C6          2.8010   -2.0580    2.5470 c3        1 R0_     -0.078500
      7 C7          1.8090   -1.0430    1.9740 c3        1 R0_     -0.072200
      8 H1          2.4960    1.6330   -0.7070 ha        1 R0_      0.118300
      9 H2          0.0010   -0.0070   -0.0130 ha        1 R0_      0.119600
     10 H3          0.6880    2.5540   -2.2590 hc        1 R0_      0.038700
     11 H4          0.6110    3.3530   -0.6770 hc        1 R0_      0.038700
     12 H5         -0.5570    2.0840   -1.0890 hc        1 R0_      0.038700
     13 H6          2.6830   -1.3500    4.5940 hc        1 R0_      0.031300
     14 H7          1.5610   -2.6720    4.2180 hc        1 R0_      0.031300
     15 H8          3.2880   -3.0070    4.4250 hc        1 R0_      0.031300
     16 H9          1.8700   -1.7170   -0.0680 hc        1 R0_      0.043700
     17 H10         3.0570   -0.4740    0.3030 hc        1 R0_      0.043700
     18 H11         2.7020   -3.0140    2.0200 hc        1 R0_      0.038300
     19 H12         3.8300   -1.7110    2.4010 hc        1 R0_      0.038300
     20 H13         0.7880   -1.4200    2.1160 hc        1 R0_      0.039400
     21 H14         1.8790   -0.1020    2.5330 hc        1 R0_      0.039400
@<TRIPOS>BOND
     1    1    2 2   
     2    1    3 1   
     3    2    5 1   
     4    4    6 1   
     5    5    7 1   
     6    6    7 1   
     7    1    8 1   
     8    2    9 1   
     9    3   10 1   
    10    3   11 1   
    11    3   12 1   
    12    4   13 1   
    13    4   14 1   
    14    4   15 1   
    15    5   16 1   
    16    5   17 1   
    17    6   18 1   
    18    6   19 1   
    19    7   20 1   
    20    7   21 1   
@<TRIPOS>SUBSTRUCTURE
     1 R0_         1 TEMP              0 ****  ****    0 ROOT
