@<TRIPOS>MOLECULE
CUP08022_AM1BCC_v1_0
   29    29     1     0     0
SMALL
No Charge or Current Charge


@<TRIPOS>ATOM
      1 C1         -2.8490    3.0560   -3.2740 ca        1 R0_     -0.054400
      2 C2         -2.0940    2.0470   -3.8690 ca        1 R0_     -0.092400
      3 C3         -2.9740    3.0850   -1.8870 ca        1 R0_     -0.118400
      4 C4         -1.4910    1.0950   -3.0500 ca        1 R0_      0.661500
      5 C5         -2.3310    2.0910   -1.1540 ca        1 R0_      0.556400
      6 C6          2.8940   -0.3860   -0.4680 c3        1 R0_     -0.111000
      7 C7          1.4110   -2.5710   -6.0690 c3        1 R0_     -0.111000
      8 C8          1.7650   -1.2350   -1.0150 c3        1 R0_      0.168500
      9 C9          0.3000   -2.3590   -5.0610 c3        1 R0_      0.168500
     10 N1         -1.5930    1.0990   -1.7070 nb        1 R0_     -0.754900
     11 O1         -0.7450    0.1070   -3.6330 os        1 R0_     -0.526800
     12 O2          0.9370   -0.4160   -1.8210 os        1 R0_     -0.533600
     13 O3          0.8580   -1.7800   -3.8930 os        1 R0_     -0.533600
     14 P1         -0.1450   -1.1310   -2.7910 p5        1 R0_      1.205300
     15 S1         -1.4000   -2.3890   -2.0020 s         1 R0_     -0.522900
     16 Cl1        -1.9400    2.0100   -5.5840 cl        1 R0_     -0.023700
     17 Cl2        -3.9070    4.3400   -1.1660 cl        1 R0_     -0.032100
     18 Cl3        -2.3860    2.0000    0.5620 cl        1 R0_     -0.082000
     19 H1         -3.3340    3.8120   -3.8860 ha        1 R0_      0.176900
     20 H2          3.4830    0.0450   -1.2840 hc        1 R0_      0.050900
     21 H3          2.4990    0.4510    0.1170 hc        1 R0_      0.050900
     22 H4          3.5570   -0.9800    0.1690 hc        1 R0_      0.050900
     23 H5          1.8910   -1.6200   -6.3190 hc        1 R0_      0.050900
     24 H6          2.1890   -3.2220   -5.6550 hc        1 R0_      0.050900
     25 H7          1.0240   -3.0230   -6.9870 hc        1 R0_      0.050900
     26 H8          1.1750   -1.6440   -0.1900 h1        1 R0_      0.063700
     27 H9          2.1710   -2.0610   -1.6070 h1        1 R0_      0.063700
     28 H10        -0.1580   -3.3190   -4.8050 h1        1 R0_      0.063700
     29 H11        -0.4650   -1.7000   -5.4820 h1        1 R0_      0.063700
@<TRIPOS>BOND
     1    1    2 ar  
     2    1    3 ar  
     3    2    4 ar  
     4    2   16 1   
     5    3    5 ar  
     6    3   17 1   
     7    4   10 ar  
     8    4   11 1   
     9    5   10 ar  
    10    5   18 1   
    11    6    8 1   
    12    7    9 1   
    13    8   12 1   
    14    9   13 1   
    15   11   14 1   
    16   12   14 1   
    17   13   14 1   
    18   14   15 2   
    19    1   19 1   
    20    6   20 1   
    21    6   21 1   
    22    6   22 1   
    23    7   23 1   
    24    7   24 1   
    25    7   25 1   
    26    8   26 1   
    27    8   27 1   
    28    9   28 1   
    29    9   29 1   
@<TRIPOS>SUBSTRUCTURE
     1 R0_         1 TEMP              0 ****  ****    0 ROOT
