@<TRIPOS>MOLECULE
SAMPL4_037
   17    17     1     0     0
SMALL
bcc


@<TRIPOS>ATOM
      1 C1          3.0990   -1.7440    0.1850 ca        1 TMP     -0.125000
      2 C2          1.9830   -1.0940   -0.3420 ca        1 TMP     -0.130000
      3 C3          3.2450   -1.8690    1.5660 ca        1 TMP     -0.188000
      4 C4          1.0130   -0.5690    0.5120 ca        1 TMP     -0.176000
      5 C5          2.2760   -1.3450    2.4210 ca        1 TMP      0.101100
      6 C6          1.1600   -0.6940    1.8940 ca        1 TMP      0.101100
      7 C7         -0.9020    0.4730    2.0990 c3        1 TMP      0.110700
      8 O1          2.4300   -1.4720    3.7680 oh        1 TMP     -0.476100
      9 O2          0.2060   -0.1760    2.7180 os        1 TMP     -0.303900
     10 H1          3.8540   -2.1530   -0.4810 ha        1 TMP      0.134000
     11 H2          1.8690   -0.9960   -1.4180 ha        1 TMP      0.134000
     12 H3          4.1170   -2.3770    1.9700 ha        1 TMP      0.135000
     13 H4          0.1470   -0.0620    0.0950 ha        1 TMP      0.139000
     14 H5         -1.5870    0.8390    2.8680 h1        1 TMP      0.044033
     15 H6         -1.4190   -0.2330    1.4430 h1        1 TMP      0.044033
     16 H7         -0.5360    1.3160    1.5080 h1        1 TMP      0.044033
     17 H8          3.2540   -1.9460    3.9670 ho        1 TMP      0.414000
@<TRIPOS>BOND
     1    1    2 ar  
     2    1    3 ar  
     3    2    4 ar  
     4    3    5 ar  
     5    4    6 ar  
     6    5    6 ar  
     7    5    8 1   
     8    6    9 1   
     9    7    9 1   
    10    1   10 1   
    11    2   11 1   
    12    3   12 1   
    13    4   13 1   
    14    7   14 1   
    15    7   15 1   
    16    7   16 1   
    17    8   17 1   
@<TRIPOS>SUBSTRUCTURE
     1 TMP         1 TEMP              0 ****  ****    0 ROOT
