@<TRIPOS>MOLECULE
ZINC01648158
   16    15     0     0     0
SMALL
USER_CHARGES
no name
@<TRIPOS>ATOM
      1 C1         -4.9842   -7.1487   -2.1408 C.3       1 <0>         0.0000
      2 C2         -5.8025   -7.3271   -0.8746 C.3       1 <0>         0.0610
      3 C3         -5.0240   -6.9744    0.3822 C.2       1 <0>         0.4480
      4 O1         -3.8567   -6.5885    0.3445 O.2       1 <0>        -0.5700
      5 C4         -5.7847   -7.1307    1.6887 C.3       1 <0>         0.0610
      6 C5         -4.9493   -6.7623    2.9014 C.3       1 <0>         0.0000
      7 H1         -5.5800   -7.4125   -3.0200 H         1 <0>         0.0000
      8 H2         -4.6519   -6.1112   -2.2513 H         1 <0>         0.0000
      9 H3         -4.0940   -7.7863   -2.1268 H         1 <0>         0.0000
     10 H4         -6.6886   -6.6854   -0.9186 H         1 <0>         0.0000
     11 H5         -6.1277   -8.3696   -0.7934 H         1 <0>         0.0000
     12 H6         -6.6708   -6.4888    1.6465 H         1 <0>         0.0000
     13 H7         -6.1099   -8.1730    1.7717 H         1 <0>         0.0000
     14 H8         -5.5327   -6.8884    3.8187 H         1 <0>         0.0000
     15 H9         -4.0587   -7.3954    2.9725 H         1 <0>         0.0000
     16 H10        -4.6166   -5.7204    2.8480 H         1 <0>         0.0000
@<TRIPOS>BOND
     1    1    2 1
     2    1    7 1
     3    1    8 1
     4    1    9 1
     5    2    3 1
     6    2   10 1
     7    2   11 1
     8    3    4 2
     9    3    5 1
    10    5    6 1
    11    5   12 1
    12    5   13 1
    13    6   14 1
    14    6   15 1
    15    6   16 1
