@<TRIPOS>MOLECULE
methylcyclopentane
   18    18     1     0     0
SMALL
No Charge or Current Charge


@<TRIPOS>ATOM
      1 C1         -0.3400    0.4880   -0.9210 c3        1 R0_     -0.079300
      2 C2         -1.6800   -0.1060   -1.3570 c3        1 R0_     -0.079300
      3 C3          0.6370    0.2130   -2.0600 c3        1 R0_     -0.077400
      4 C4         -1.4490   -0.6930   -2.7460 c3        1 R0_     -0.077400
      5 C5          0.0450   -0.9980   -2.7730 c3        1 R0_     -0.071000
      6 C6          0.5910   -1.1930   -4.1770 c3        1 R0_     -0.082200
      7 H1         -0.4170    1.5600   -0.7140 hc        1 R0_      0.038900
      8 H2          0.0000    0.0000   -0.0000 hc        1 R0_      0.038900
      9 H3         -1.9820   -0.8930   -0.6570 hc        1 R0_      0.038900
     10 H4         -2.4750    0.6460   -1.3690 hc        1 R0_      0.038900
     11 H5          0.6760    1.0790   -2.7330 hc        1 R0_      0.041100
     12 H6          1.6520    0.0280   -1.6940 hc        1 R0_      0.041100
     13 H7         -2.0610   -1.5830   -2.9230 hc        1 R0_      0.041100
     14 H8         -1.7070    0.0500   -3.5110 hc        1 R0_      0.041100
     15 H9          0.2450   -1.9030   -2.1860 hc        1 R0_      0.048600
     16 H10        -0.0610   -1.8550   -4.7540 hc        1 R0_      0.032600
     17 H11         0.6590   -0.2350   -4.6990 hc        1 R0_      0.032600
     18 H12         1.5900   -1.6390   -4.1420 hc        1 R0_      0.032600
@<TRIPOS>BOND
     1    1    2 1   
     2    1    3 1   
     3    2    4 1   
     4    3    5 1   
     5    4    5 1   
     6    5    6 1   
     7    1    7 1   
     8    1    8 1   
     9    2    9 1   
    10    2   10 1   
    11    3   11 1   
    12    3   12 1   
    13    4   13 1   
    14    4   14 1   
    15    5   15 1   
    16    6   16 1   
    17    6   17 1   
    18    6   18 1   
@<TRIPOS>SUBSTRUCTURE
     1 R0_         1 TEMP              0 ****  ****    0 ROOT
