@<TRIPOS>MOLECULE
n_octane
   26    25     1     0     0
SMALL
No Charge or Current Charge


@<TRIPOS>ATOM
      1 C1          0.6300   -1.0370    0.8850 c3        1 R0_     -0.089600
      2 C2          1.2680    5.2720    7.1250 c3        1 R0_     -0.089600
      3 C3          0.3400   -0.5160    2.2850 c3        1 R0_     -0.077700
      4 C4          1.5800    4.7410    5.7350 c3        1 R0_     -0.077700
      5 C5          0.8900    0.8980    2.4780 c3        1 R0_     -0.076500
      6 C6          0.9370    3.3750    5.5010 c3        1 R0_     -0.076500
      7 C7          0.6120    1.4740    3.8700 c3        1 R0_     -0.076600
      8 C8          1.2250    2.8590    4.0890 c3        1 R0_     -0.076600
      9 H1          0.1700   -0.3970    0.1260 hc        1 R0_      0.031400
     10 H2          1.7080   -1.0750    0.6960 hc        1 R0_      0.031400
     11 H3          0.2290   -2.0490    0.7670 hc        1 R0_      0.031400
     12 H4          1.7370    6.2500    7.2710 hc        1 R0_      0.031400
     13 H5          1.6460    4.5960    7.8980 hc        1 R0_      0.031400
     14 H6          0.1890    5.3890    7.2680 hc        1 R0_      0.031400
     15 H7         -0.7430   -0.5300    2.4450 hc        1 R0_      0.037100
     16 H8          0.7870   -1.1940    3.0210 hc        1 R0_      0.037100
     17 H9          1.2180    5.4570    4.9880 hc        1 R0_      0.037100
     18 H10         2.6670    4.6670    5.6140 hc        1 R0_      0.037100
     19 H11         1.9760    0.8830    2.3260 hc        1 R0_      0.037700
     20 H12         0.4730    1.5650    1.7140 hc        1 R0_      0.037700
     21 H13         1.3180    2.6580    6.2390 hc        1 R0_      0.037700
     22 H14        -0.1470    3.4480    5.6510 hc        1 R0_      0.037700
     23 H15        -0.4710    1.5160    4.0410 hc        1 R0_      0.038300
     24 H16         1.0220    0.7800    4.6140 hc        1 R0_      0.038300
     25 H17         0.8200    3.5690    3.3590 hc        1 R0_      0.038300
     26 H18         2.3090    2.8110    3.9300 hc        1 R0_      0.038300
@<TRIPOS>BOND
     1    1    3 1   
     2    2    4 1   
     3    3    5 1   
     4    4    6 1   
     5    5    7 1   
     6    6    8 1   
     7    7    8 1   
     8    1    9 1   
     9    1   10 1   
    10    1   11 1   
    11    2   12 1   
    12    2   13 1   
    13    2   14 1   
    14    3   15 1   
    15    3   16 1   
    16    4   17 1   
    17    4   18 1   
    18    5   19 1   
    19    5   20 1   
    20    6   21 1   
    21    6   22 1   
    22    7   23 1   
    23    7   24 1   
    24    8   25 1   
    25    8   26 1   
@<TRIPOS>SUBSTRUCTURE
     1 R0_         1 TEMP              0 ****  ****    0 ROOT
