@<TRIPOS>MOLECULE
111_trimethoxyethane
   20    19     1     0     0
SMALL
No Charge or Current Charge


@<TRIPOS>ATOM
      1 C1          0.1450    0.0970    1.0820 c3        1 R0_     -0.113600
      2 C2          1.6590   -3.1800    1.8410 c3        1 R0_      0.135100
      3 C3          0.6380   -0.6530    3.8920 c3        1 R0_      0.135100
      4 C4          2.9430    0.6300    0.5770 c3        1 R0_      0.135100
      5 C5          1.2770   -0.8260    1.5630 c3        1 R0_      0.525100
      6 O1          0.7480   -2.1650    1.4380 os        1 R0_     -0.449500
      7 O2          1.6620   -0.5240    2.9160 os        1 R0_     -0.449500
      8 O3          2.4000   -0.6800    0.6660 os        1 R0_     -0.449500
      9 H1          0.3560    1.1470    1.3060 hc        1 R0_      0.060500
     10 H2          0.0000   -0.0000    0.0000 hc        1 R0_      0.060500
     11 H3         -0.8080   -0.1570    1.5580 hc        1 R0_      0.060500
     12 H4          2.6770   -2.7820    1.8290 h1        1 R0_      0.038900
     13 H5          1.5810   -4.0320    1.1600 h1        1 R0_      0.038900
     14 H6          1.4080   -3.5020    2.8540 h1        1 R0_      0.038900
     15 H7          1.0760   -0.9770    4.8390 h1        1 R0_      0.038900
     16 H8         -0.1000   -1.3840    3.5510 h1        1 R0_      0.038900
     17 H9          0.1530    0.3160    4.0290 h1        1 R0_      0.038900
     18 H10         2.3160    1.2410   -0.0770 h1        1 R0_      0.038900
     19 H11         3.9600    0.5770    0.1790 h1        1 R0_      0.038900
     20 H12         2.9670    1.0740    1.5740 h1        1 R0_      0.038900
@<TRIPOS>BOND
     1    1    5 1   
     2    2    6 1   
     3    3    7 1   
     4    4    8 1   
     5    5    6 1   
     6    5    7 1   
     7    5    8 1   
     8    1    9 1   
     9    1   10 1   
    10    1   11 1   
    11    2   12 1   
    12    2   13 1   
    13    2   14 1   
    14    3   15 1   
    15    3   16 1   
    16    3   17 1   
    17    4   18 1   
    18    4   19 1   
    19    4   20 1   
@<TRIPOS>SUBSTRUCTURE
     1 R0_         1 TEMP              0 ****  ****    0 ROOT
