@<TRIPOS>MOLECULE
3_methyl_but_1_ene
   15    14     1     0     0
SMALL
No Charge or Current Charge


@<TRIPOS>ATOM
      1 C1          0.9500   -0.5100    0.1170 c2        1 R0_     -0.224200
      2 C2          1.0890   -1.4840    1.0240 c2        1 R0_     -0.161300
      3 C3          0.3870   -1.7200    3.4010 c3        1 R0_     -0.084500
      4 C4         -0.3340   -3.4150    1.6910 c3        1 R0_     -0.084500
      5 C5         -0.0140   -1.9410    1.9420 c3        1 R0_     -0.037400
      6 H1          1.7710   -0.2100   -0.5260 ha        1 R0_      0.110800
      7 H2          0.0030    0.0060    0.0060 ha        1 R0_      0.110800
      8 H3          2.0540   -1.9780    1.1080 ha        1 R0_      0.116600
      9 H4         -0.4210   -2.0250    4.0740 hc        1 R0_      0.034000
     10 H5          0.5990   -0.6620    3.5930 hc        1 R0_      0.034000
     11 H6          1.2810   -2.2960    3.6650 hc        1 R0_      0.034000
     12 H7          0.5320   -4.0560    1.8920 hc        1 R0_      0.034000
     13 H8         -1.1540   -3.7470    2.3370 hc        1 R0_      0.034000
     14 H9         -0.6410   -3.5780    0.6520 hc        1 R0_      0.034000
     15 H10        -0.9240   -1.3590    1.7500 hc        1 R0_      0.049600
@<TRIPOS>BOND
     1    1    2 2   
     2    2    5 1   
     3    3    5 1   
     4    4    5 1   
     5    1    6 1   
     6    1    7 1   
     7    2    8 1   
     8    3    9 1   
     9    3   10 1   
    10    3   11 1   
    11    4   12 1   
    12    4   13 1   
    13    4   14 1   
    14    5   15 1   
@<TRIPOS>SUBSTRUCTURE
     1 R0_         1 TEMP              0 ****  ****    0 ROOT
