@<TRIPOS>MOLECULE
12_dichloroethane
    8     7     1     0     0
SMALL
No Charge or Current Charge


@<TRIPOS>ATOM
      1 C1         -0.3490    0.4170   -0.9490 c3        1 R0_      0.023100
      2 C2         -1.3750   -0.5100   -1.5790 c3        1 R0_      0.023100
      3 Cl1         1.0830    0.6230   -1.9860 cl        1 R0_     -0.176500
      4 Cl2        -1.9770    0.1240   -3.1300 cl        1 R0_     -0.176500
      5 H1         -0.7690    1.4090   -0.7520 h1        1 R0_      0.076700
      6 H2          0.0000    0.0000    0.0000 h1        1 R0_      0.076700
      7 H3         -2.2400   -0.6140   -0.9180 h1        1 R0_      0.076700
      8 H4         -0.9600   -1.5070   -1.7580 h1        1 R0_      0.076700
@<TRIPOS>BOND
     1    1    2 1   
     2    1    3 1   
     3    2    4 1   
     4    1    5 1   
     5    1    6 1   
     6    2    7 1   
     7    2    8 1   
@<TRIPOS>SUBSTRUCTURE
     1 R0_         1 TEMP              0 ****  ****    0 ROOT
