@<TRIPOS>MOLECULE
CUP08006_AM1BCC_v1_0
   12    11     1     0     0
SMALL
No Charge or Current Charge


@<TRIPOS>ATOM
      1 C1         -0.9110    0.4610    0.4460 c3        1 R0_      0.130800
      2 C2         -2.1640   -0.1860   -0.1370 c3        1 R0_      0.131700
      3 N1         -4.5180    0.0000   -0.1380 no        1 R0_      0.380600
      4 O1         -5.5030    0.6000    0.2900 o         1 R0_     -0.177700
      5 O2         -4.4510   -0.9570   -0.9110 o         1 R0_     -0.177700
      6 O3         -0.7320    1.7550   -0.1230 oh        1 R0_     -0.597500
      7 O4         -3.3030    0.5000    0.3820 os        1 R0_     -0.356000
      8 H1         -0.0280   -0.1380    0.2090 h1        1 R0_      0.044500
      9 H2         -0.9990    0.5750    1.5310 h1        1 R0_      0.044500
     10 H3         -2.1940   -1.2380    0.1700 h1        1 R0_      0.080400
     11 H4         -2.1400   -0.1020   -1.2300 h1        1 R0_      0.080400
     12 H5          0.0370    2.1610    0.3150 ho        1 R0_      0.416000
@<TRIPOS>BOND
     1    1    2 1   
     2    1    6 1   
     3    2    7 1   
     4    3    4 1   
     5    3    5 1   
     6    3    7 1   
     7    1    8 1   
     8    1    9 1   
     9    2   10 1   
    10    2   11 1   
    11    6   12 1   
@<TRIPOS>SUBSTRUCTURE
     1 R0_         1 TEMP              0 ****  ****    0 ROOT
