@<TRIPOS>MOLECULE
ZINC01586303
   17    16     0     0     0
SMALL
USER_CHARGES
no name
@<TRIPOS>ATOM
      1 C1         -6.3095   -7.6542   -2.5388 C.3       1 <0>         0.0000
      2 C2         -5.7394   -6.7257   -1.4785 C.3       1 <0>         0.0000
      3 C3         -5.4082   -7.4813   -0.1918 C.3       1 <0>         0.0000
      4 C4         -4.8349   -6.5440    0.8726 C.3       1 <0>         0.0000
      5 C5         -4.5072   -7.3027    2.1518 C.3       1 <0>         0.2900
      6 Cl1        -3.8424   -6.1970    3.3762 Cl        1 <0>        -0.2900
      7 H1         -6.5390   -7.0932   -3.4501 H         1 <0>         0.0000
      8 H2         -5.5942   -8.4420   -2.7960 H         1 <0>         0.0000
      9 H3         -7.2325   -8.1281   -2.1900 H         1 <0>         0.0000
     10 H4         -4.8361   -6.2439   -1.8705 H         1 <0>         0.0000
     11 H5         -6.4653   -5.9317   -1.2679 H         1 <0>         0.0000
     12 H6         -6.3141   -7.9648    0.1939 H         1 <0>         0.0000
     13 H7         -4.6849   -8.2769   -0.4087 H         1 <0>         0.0000
     14 H8         -3.9297   -6.0608    0.4845 H         1 <0>         0.0000
     15 H9         -5.5594   -5.7486    1.0873 H         1 <0>         0.0000
     16 H10        -5.4021   -7.7682    2.5756 H         1 <0>         0.0000
     17 H11        -3.7617   -8.0824    1.9688 H         1 <0>         0.0000
@<TRIPOS>BOND
     1    1    2 1
     2    1    7 1
     3    1    8 1
     4    1    9 1
     5    2    3 1
     6    2   10 1
     7    2   11 1
     8    3    4 1
     9    3   12 1
    10    3   13 1
    11    4    5 1
    12    4   14 1
    13    4   15 1
    14    5    6 1
    15    5   16 1
    16    5   17 1
