@<TRIPOS>MOLECULE
hexafluoropropene
    9     8     1     0     0
SMALL
No Charge or Current Charge


@<TRIPOS>ATOM
      1 C1          1.1670    0.4710   -0.4490 c2        1 R0_     -0.056900
      2 C2          0.0000   -0.0000    0.0000 c2        1 R0_      0.375900
      3 C3          1.4860    0.7500   -1.8750 c3        1 R0_      0.713000
      4 F1          2.1360    0.7130    0.4640 f         1 R0_     -0.112300
      5 F2         -0.1970   -0.2230    1.3160 f         1 R0_     -0.127600
      6 F3         -0.9960   -0.2570   -0.8750 f         1 R0_     -0.127600
      7 F4          2.7430    1.2230   -2.0690 f         1 R0_     -0.221500
      8 F5          1.3670   -0.3680   -2.6340 f         1 R0_     -0.221500
      9 F6          0.6360    1.6700   -2.3980 f         1 R0_     -0.221500
@<TRIPOS>BOND
     1    1    2 2   
     2    1    3 1   
     3    1    4 1   
     4    2    5 1   
     5    2    6 1   
     6    3    7 1   
     7    3    8 1   
     8    3    9 1   
@<TRIPOS>SUBSTRUCTURE
     1 R0_         1 TEMP              0 ****  ****    0 ROOT
