@<TRIPOS>MOLECULE
p_toluidine
   17    17     1     0     0
SMALL
No Charge or Current Charge


@<TRIPOS>ATOM
      1 C1          0.8180   -0.4390    0.5640 ca        1 R0_     -0.093300
      2 C2          2.9370   -1.5970    0.6200 ca        1 R0_     -0.093300
      3 C3          0.7990   -0.4060    1.9590 ca        1 R0_     -0.187600
      4 C4          2.9180   -1.5650    2.0140 ca        1 R0_     -0.187600
      5 C5          1.8870   -1.0340   -0.1050 ca        1 R0_     -0.111500
      6 C6          1.8500   -0.9690    2.6840 ca        1 R0_      0.134400
      7 C7          1.9060   -1.0690   -1.5960 c3        1 R0_     -0.051800
      8 N1          1.8310   -0.9370    4.0940 nh        1 R0_     -0.821100
      9 H1         -0.0050    0.0030    0.0080 ha        1 R0_      0.129000
     10 H2          3.7740   -2.0630    0.1060 ha        1 R0_      0.129000
     11 H3         -0.0390    0.0600    2.4710 ha        1 R0_      0.130300
     12 H4          3.7420   -2.0060    2.5690 ha        1 R0_      0.130300
     13 H5          2.1010   -2.0880   -1.9520 hc        1 R0_      0.039200
     14 H6          0.9500   -0.7310   -2.0150 hc        1 R0_      0.039200
     15 H7          2.6820   -0.4050   -2.0000 hc        1 R0_      0.039200
     16 H8          2.4290   -1.5540    4.6040 hn        1 R0_      0.387700
     17 H9          1.1540   -0.3670    4.5590 hn        1 R0_      0.387700
@<TRIPOS>BOND
     1    1    3 ar  
     2    1    5 ar  
     3    2    4 ar  
     4    2    5 ar  
     5    3    6 ar  
     6    4    6 ar  
     7    5    7 1   
     8    6    8 1   
     9    1    9 1   
    10    2   10 1   
    11    3   11 1   
    12    4   12 1   
    13    7   13 1   
    14    7   14 1   
    15    7   15 1   
    16    8   16 1   
    17    8   17 1   
@<TRIPOS>SUBSTRUCTURE
     1 R0_         1 TEMP              0 ****  ****    0 ROOT
