@<TRIPOS>MOLECULE
clet2o.xyz
   15    14     1     0     0
SMALL
No Charge or Current Charge


@<TRIPOS>ATOM
      1 C1          2.3160    1.4220    0.0000 c3        1 <0>      0.135900
      2 C2          4.3800    2.5580    0.0000 c3        1 <0>      0.135800
      3 C3          1.7920    0.0000    0.0000 c3        1 <0>      0.047800
      4 C4          5.8620    2.2410   -0.0000 c3        1 <0>      0.047800
      5 O1          3.7110    1.3320   -0.0000 os        1 <0>     -0.427500
      6 Cl1         0.0000    0.0000    0.0000 cl        1 <0>     -0.196500
      7 Cl2         6.8200    3.7550    0.0000 cl        1 <0>     -0.196500
      8 H1          1.9650    1.9530   -0.8810 h1        1 <0>      0.037900
      9 H2          1.9650    1.9530    0.8810 h1        1 <0>      0.037900
     10 H3          4.1200    3.1390   -0.8810 h1        1 <0>      0.037900
     11 H4          4.1200    3.1390    0.8820 h1        1 <0>      0.037900
     12 H5          2.1150   -0.5310   -0.8810 h1        1 <0>      0.075400
     13 H6          2.1150   -0.5310    0.8810 h1        1 <0>      0.075400
     14 H7          6.1380    1.6840   -0.8820 h1        1 <0>      0.075400
     15 H8          6.1380    1.6840    0.8810 h1        1 <0>      0.075400
@<TRIPOS>BOND
     1    1    3 1   
     2    1    5 1   
     3    2    4 1   
     4    2    5 1   
     5    3    6 1   
     6    4    7 1   
     7    1    8 1   
     8    1    9 1   
     9    2   10 1   
    10    2   11 1   
    11    3   12 1   
    12    3   13 1   
    13    4   14 1   
    14    4   15 1   
@<TRIPOS>SUBSTRUCTURE
     1 <0>         1 TEMP              0 ****  ****    0 ROOT
