@<TRIPOS>MOLECULE
3_nitroaniline
   16    16     1     0     0
SMALL
No Charge or Current Charge


@<TRIPOS>ATOM
      1 C1          0.8320   -0.3950    0.5750 ca        1 R0_     -0.095000
      2 C2          1.8990   -1.0140   -0.0770 ca        1 R0_     -0.164100
      3 C3          0.8350   -0.2830    1.9660 ca        1 R0_     -0.121700
      4 C4          2.9710   -1.4090    2.0520 ca        1 R0_     -0.149700
      5 C5          2.9680   -1.5200    0.6620 ca        1 R0_      0.154600
      6 C6          1.9040   -0.7900    2.7040 ca        1 R0_     -0.122600
      7 N1          4.0460   -2.1460    0.0030 nh        1 R0_     -0.831100
      8 N2          1.9060   -0.6760    4.1200 no        1 R0_      0.307800
      9 O1          0.9360   -0.1170    4.6860 o         1 R0_     -0.205400
     10 O2          2.8770   -1.1390    4.7650 o         1 R0_     -0.205400
     11 H1          0.0000    0.0000   -0.0000 ha        1 R0_      0.146300
     12 H2          1.8870   -1.0950   -1.1610 ha        1 R0_      0.142800
     13 H3         -0.0030    0.2020    2.4610 ha        1 R0_      0.166600
     14 H4          3.8060   -1.8050    2.6260 ha        1 R0_      0.166100
     15 H5          3.8590   -2.7650   -0.7600 hn        1 R0_      0.405400
     16 H6          4.9710   -2.0360    0.3670 hn        1 R0_      0.405400
@<TRIPOS>BOND
     1    1    2 ar  
     2    1    3 ar  
     3    2    5 ar  
     4    3    6 ar  
     5    4    5 ar  
     6    4    6 ar  
     7    5    7 1   
     8    6    8 1   
     9    8    9 1   
    10    8   10 1   
    11    1   11 1   
    12    2   12 1   
    13    3   13 1   
    14    4   14 1   
    15    7   15 1   
    16    7   16 1   
@<TRIPOS>SUBSTRUCTURE
     1 R0_         1 TEMP              0 ****  ****    0 ROOT
