@<TRIPOS>MOLECULE
halothane
    8     7     1     0     0
SMALL
No Charge or Current Charge


@<TRIPOS>ATOM
      1 C1          0.0000   -0.0000    0.0000 c3        1 R0_      0.030400
      2 C2         -0.3430   -0.5420   -1.3670 c3        1 R0_      0.653900
      3 F1         -0.0820   -1.8680   -1.4370 f         1 R0_     -0.223800
      4 F2         -1.6450   -0.3640   -1.6760 f         1 R0_     -0.223800
      5 F3          0.3960    0.0570   -2.3290 f         1 R0_     -0.223800
      6 Cl1        -0.9660   -0.7880    1.2620 cl        1 R0_     -0.082400
      7 Br1        -0.3210    1.9190    0.0590 br        1 R0_     -0.063600
      8 H1          1.0580   -0.1460    0.2310 h2        1 R0_      0.133200
@<TRIPOS>BOND
     1    1    2 1   
     2    1    6 1   
     3    1    7 1   
     4    2    3 1   
     5    2    4 1   
     6    2    5 1   
     7    1    8 1   
@<TRIPOS>SUBSTRUCTURE
     1 R0_         1 TEMP              0 ****  ****    0 ROOT
