@<TRIPOS>MOLECULE
13_dichlorobenzene
   12    12     1     0     0
SMALL
No Charge or Current Charge


@<TRIPOS>ATOM
      1 C1          0.8320   -0.3950    0.5750 ca        1 R0_     -0.113200
      2 C2          1.8990   -1.0140   -0.0770 ca        1 R0_     -0.124600
      3 C3          0.8350   -0.2830    1.9660 ca        1 R0_     -0.124600
      4 C4          2.9710   -1.4090    2.0520 ca        1 R0_     -0.121100
      5 C5          2.9680   -1.5200    0.6620 ca        1 R0_      0.024300
      6 C6          1.9040   -0.7900    2.7040 ca        1 R0_      0.024300
      7 Cl1         4.2840   -2.2840   -0.1430 cl        1 R0_     -0.085800
      8 Cl2         1.9070   -0.6510    4.4200 cl        1 R0_     -0.085800
      9 H1          0.0000    0.0000   -0.0000 ha        1 R0_      0.142900
     10 H2          1.8830   -1.0950   -1.1610 ha        1 R0_      0.150900
     11 H3         -0.0030    0.2020    2.4600 ha        1 R0_      0.150900
     12 H4          3.8040   -1.8040    2.6290 ha        1 R0_      0.161800
@<TRIPOS>BOND
     1    1    2 ar  
     2    1    3 ar  
     3    2    5 ar  
     4    3    6 ar  
     5    4    5 ar  
     6    4    6 ar  
     7    5    7 1   
     8    6    8 1   
     9    1    9 1   
    10    2   10 1   
    11    3   11 1   
    12    4   12 1   
@<TRIPOS>SUBSTRUCTURE
     1 R0_         1 TEMP              0 ****  ****    0 ROOT
