@<TRIPOS>MOLECULE
CUP08024_AM1BCC_v1_0
   40    40     1     0     0
SMALL
No Charge or Current Charge


@<TRIPOS>ATOM
      1 C1         -1.3330    0.3160   -5.9140 ca        1 R0_     -0.365900
      2 C2         -2.2640    0.1680   -6.9190 ca        1 R0_      0.483400
      3 C3         -1.7530   -0.0380   -4.6550 ca        1 R0_      0.676200
      4 C4         -3.8220   -0.6120   -5.4130 ca        1 R0_      0.725800
      5 C5         -1.9150    0.5230   -8.3330 c3        1 R0_     -0.157900
      6 C6         -3.7950    1.9990   -0.2590 c3        1 R0_     -0.111400
      7 C7          2.3050    0.8870   -0.9920 c3        1 R0_     -0.111400
      8 C8         -5.9390   -0.2610   -4.1200 c3        1 R0_     -0.097200
      9 C9         -5.1680   -2.5910   -4.6910 c3        1 R0_     -0.097200
     10 C10        -2.9050    0.7830   -0.4160 c3        1 R0_      0.175200
     11 C11         1.3020   -0.1320   -1.4920 c3        1 R0_      0.175200
     12 C12        -5.2150   -1.1330   -5.1460 c3        1 R0_     -0.097500
     13 N1         -3.5090   -0.2930   -6.6840 nb        1 R0_     -0.715300
     14 N2         -2.9750   -0.5010   -4.3760 nb        1 R0_     -0.828500
     15 O1         -0.8560    0.1030   -3.6310 os        1 R0_     -0.535900
     16 O2         -2.4180    0.7510   -1.7450 os        1 R0_     -0.537300
     17 O3         -0.0020    0.3940   -1.3100 os        1 R0_     -0.537300
     18 P1         -1.2380   -0.2970   -2.1130 p5        1 R0_      1.212700
     19 S1         -1.5120   -2.1750   -1.6850 s         1 R0_     -0.529000
     20 H1         -0.3350    0.6880   -6.0980 ha        1 R0_      0.173900
     21 H2         -1.0750   -0.0860   -8.6800 hc        1 R0_      0.064200
     22 H3         -2.7640    0.3440   -9.0010 hc        1 R0_      0.064200
     23 H4         -1.6450    1.5810   -8.4010 hc        1 R0_      0.064200
     24 H5         -3.2360    2.9160   -0.4720 hc        1 R0_      0.050300
     25 H6         -4.6280    1.9610   -0.9680 hc        1 R0_      0.050300
     26 H7         -4.1970    2.0590    0.7560 hc        1 R0_      0.050300
     27 H8          2.2060    1.8270   -1.5440 hc        1 R0_      0.050300
     28 H9          2.1290    1.1170    0.0640 hc        1 R0_      0.050300
     29 H10         3.3280    0.5160   -1.1070 hc        1 R0_      0.050300
     30 H11        -5.4410   -0.2820   -3.1440 hc        1 R0_      0.048600
     31 H12        -6.9690   -0.6060   -3.9780 hc        1 R0_      0.048600
     32 H13        -5.9770    0.7830   -4.4520 hc        1 R0_      0.048600
     33 H14        -4.6350   -2.7030   -3.7410 hc        1 R0_      0.048600
     34 H15        -4.6590   -3.2170   -5.4330 hc        1 R0_      0.048600
     35 H16        -6.1810   -2.9870   -4.5560 hc        1 R0_      0.048600
     36 H17        -3.4820   -0.1250   -0.2190 h1        1 R0_      0.059600
     37 H18        -2.0700    0.8360    0.2900 h1        1 R0_      0.059600
     38 H19         1.3990   -1.0600   -0.9200 h1        1 R0_      0.059600
     39 H20         1.4820   -0.3460   -2.5500 h1        1 R0_      0.059600
     40 H21        -5.7840   -1.0900   -6.0840 hc        1 R0_      0.075200
@<TRIPOS>BOND
     1    1    2 ar  
     2    1    3 ar  
     3    2    5 1   
     4    2   13 ar  
     5    3   14 ar  
     6    3   15 1   
     7    4   12 1   
     8    4   13 ar  
     9    4   14 ar  
    10    6   10 1   
    11    7   11 1   
    12    8   12 1   
    13    9   12 1   
    14   10   16 1   
    15   11   17 1   
    16   15   18 1   
    17   16   18 1   
    18   17   18 1   
    19   18   19 2   
    20    1   20 1   
    21    5   21 1   
    22    5   22 1   
    23    5   23 1   
    24    6   24 1   
    25    6   25 1   
    26    6   26 1   
    27    7   27 1   
    28    7   28 1   
    29    7   29 1   
    30    8   30 1   
    31    8   31 1   
    32    8   32 1   
    33    9   33 1   
    34    9   34 1   
    35    9   35 1   
    36   10   36 1   
    37   10   37 1   
    38   11   38 1   
    39   11   39 1   
    40   12   40 1   
@<TRIPOS>SUBSTRUCTURE
     1 R0_         1 TEMP              0 ****  ****    0 ROOT
