@<TRIPOS>MOLECULE
1,2,3-trichloro-5-(2,5-dichlorophenyl)benzene
   22    23     1     0     0
SMALL
No Charge or Current Charge


@<TRIPOS>ATOM
      1 C1         -2.2950    1.4200   -1.6250 ca        1 <0>     -0.110800
      2 C2         -2.4000    0.0630   -1.3190 ca        1 <0>     -0.118600
      3 C3          1.8850   -1.0360   -0.1120 ca        1 <0>     -0.097200
      4 C4          0.7640   -0.4840    1.9550 ca        1 <0>     -0.096600
      5 C5         -0.1630    1.5110   -0.4920 ca        1 <0>     -0.101100
      6 C6          0.8070   -0.4630    0.5610 cp        1 <0>     -0.030200
      7 C7         -0.2680    0.1540   -0.1860 cp        1 <0>     -0.038400
      8 C8         -1.1770    2.1440   -1.2110 ca        1 <0>      0.014800
      9 C9         -1.3860   -0.5700   -0.6000 ca        1 <0>      0.030100
     10 C10         2.9210   -1.6310    0.6080 ca        1 <0>      0.021500
     11 C11         1.8000   -1.0790    2.6760 ca        1 <0>      0.021400
     12 C12         2.8780   -1.6520    2.0020 ca        1 <0>      0.021300
     13 Cl1        -1.0500    3.8190   -1.5870 cl        1 <0>     -0.079700
     14 Cl2        -1.5690   -2.2540   -0.2500 cl        1 <0>     -0.070900
     15 Cl3         4.2250   -2.3220   -0.2960 cl        1 <0>     -0.059500
     16 Cl4         1.6770   -1.0660    4.4020 cl        1 <0>     -0.059800
     17 Cl5         4.1690   -2.3930    2.9000 cl        1 <0>     -0.041100
     18 H1         -3.0940    1.9000   -2.1850 ha        1 <0>      0.154200
     19 H2         -3.2780   -0.4860   -1.6500 ha        1 <0>      0.155700
     20 H3          1.9160   -1.0180   -1.2000 ha        1 <0>      0.162700
     21 H4         -0.0790   -0.0350    2.4780 ha        1 <0>      0.162500
     22 H5          0.7080    2.0790   -0.1700 ha        1 <0>      0.159700
@<TRIPOS>BOND
     1    1    2 ar  
     2    1    8 ar  
     3    2    9 ar  
     4    3    6 ar  
     5    3   10 ar  
     6    4    6 ar  
     7    4   11 ar  
     8    5    7 ar  
     9    5    8 ar  
    10    6    7 1   
    11    7    9 ar  
    12    8   13 1   
    13    9   14 1   
    14   10   12 ar  
    15   10   15 1   
    16   11   12 ar  
    17   11   16 1   
    18   12   17 1   
    19    1   18 1   
    20    2   19 1   
    21    3   20 1   
    22    4   21 1   
    23    5   22 1   
@<TRIPOS>SUBSTRUCTURE
     1 <0>         1 TEMP              0 ****  ****    0 ROOT
