@<TRIPOS>MOLECULE
24_dimethylpyridine
   17    17     1     0     0
SMALL
No Charge or Current Charge


@<TRIPOS>ATOM
      1 C1          0.1830   -0.3460    1.0110 ca        1 R0_     -0.255300
      2 C2          1.5260   -0.4070    3.0050 ca        1 R0_     -0.253700
      3 C3         -0.7040   -1.2000    1.6470 ca        1 R0_      0.402100
      4 C4          1.3170    0.0530    1.7100 ca        1 R0_     -0.025700
      5 C5          0.5790   -1.2580    3.5520 ca        1 R0_      0.414600
      6 C6          2.3040    0.9710    1.0720 c3        1 R0_     -0.067200
      7 C7          0.7710   -1.7700    4.9400 c3        1 R0_     -0.147000
      8 N1         -0.5340   -1.6670    2.9040 nb        1 R0_     -0.671400
      9 H1         -0.0080   -0.0050   -0.0010 ha        1 R0_      0.141900
     10 H2          2.4040   -0.1080    3.5690 ha        1 R0_      0.140500
     11 H3         -1.6030   -1.5400    1.1450 h4        1 R0_      0.019900
     12 H4          3.3260    0.6050    1.2330 hc        1 R0_      0.048300
     13 H5          2.1310    1.0550   -0.0090 hc        1 R0_      0.048300
     14 H6          2.2300    1.9860    1.4850 hc        1 R0_      0.048300
     15 H7          1.5740   -1.2180    5.4430 hc        1 R0_      0.052200
     16 H8         -0.1470   -1.6670    5.5330 hc        1 R0_      0.052200
     17 H9          1.0300   -2.8370    4.9380 hc        1 R0_      0.052200
@<TRIPOS>BOND
     1    1    3 ar  
     2    1    4 ar  
     3    2    4 ar  
     4    2    5 ar  
     5    3    8 ar  
     6    4    6 1   
     7    5    7 1   
     8    5    8 ar  
     9    1    9 1   
    10    2   10 1   
    11    3   11 1   
    12    6   12 1   
    13    6   13 1   
    14    6   14 1   
    15    7   15 1   
    16    7   16 1   
    17    7   17 1   
@<TRIPOS>SUBSTRUCTURE
     1 R0_         1 TEMP              0 ****  ****    0 ROOT
