@<TRIPOS>MOLECULE
3_cyanophenol
   14    14     1     0     0
SMALL
No Charge or Current Charge


@<TRIPOS>ATOM
      1 C1          4.0610   -2.1540   -0.0060 cg        1 R0_      0.229800
      2 C2          0.8320   -0.3950    0.5750 ca        1 R0_     -0.095500
      3 C3          1.8990   -1.0140   -0.0770 ca        1 R0_     -0.128300
      4 C4          0.8350   -0.2830    1.9660 ca        1 R0_     -0.192400
      5 C5          2.9710   -1.4090    2.0520 ca        1 R0_     -0.120000
      6 C6          2.9680   -1.5200    0.6620 ca        1 R0_      0.017400
      7 C7          1.9040   -0.7900    2.7040 ca        1 R0_      0.121600
      8 N1          4.9490   -2.6700   -0.5490 n1        1 R0_     -0.355400
      9 O1          1.9060   -0.6810    4.0610 oh        1 R0_     -0.493600
     10 H1         -0.0000   -0.0000    0.0000 ha        1 R0_      0.141700
     11 H2          1.8830   -1.0930   -1.1610 ha        1 R0_      0.147800
     12 H3          0.0010    0.2000    2.4670 ha        1 R0_      0.139600
     13 H4          3.8000   -1.8010    2.6360 ha        1 R0_      0.163900
     14 H5          1.2260   -0.0350    4.3260 ho        1 R0_      0.423600
@<TRIPOS>BOND
     1    1    6 1   
     2    1    8 3   
     3    2    3 ar  
     4    2    4 ar  
     5    3    6 ar  
     6    4    7 ar  
     7    5    6 ar  
     8    5    7 ar  
     9    7    9 1   
    10    2   10 1   
    11    3   11 1   
    12    4   12 1   
    13    5   13 1   
    14    9   14 1   
@<TRIPOS>SUBSTRUCTURE
     1 R0_         1 TEMP              0 ****  ****    0 ROOT
