@<TRIPOS>MOLECULE
anisole
   16    16     1     0     0
SMALL
No Charge or Current Charge


@<TRIPOS>ATOM
      1 C1          1.8850   -1.0380   -0.1090 ca        1 R0_     -0.164800
      2 C2          0.8180   -0.4410    0.5630 ca        1 R0_     -0.097800
      3 C3          2.9350   -1.6040    0.6140 ca        1 R0_     -0.097800
      4 C4          0.8010   -0.4100    1.9570 ca        1 R0_     -0.179700
      5 C5          2.9180   -1.5730    2.0080 ca        1 R0_     -0.179700
      6 C6          1.8510   -0.9770    2.6800 ca        1 R0_      0.123200
      7 C7          0.7130   -0.3230    4.6630 c3        1 R0_      0.117600
      8 O1          1.8340   -0.9480    4.0400 os        1 R0_     -0.329700
      9 H1          1.8990   -1.0600   -1.1950 ha        1 R0_      0.132400
     10 H2         -0.0000   -0.0010   -0.0000 ha        1 R0_      0.131900
     11 H3          3.7660   -2.0680    0.0900 ha        1 R0_      0.131900
     12 H4         -0.0340    0.0550    2.4750 ha        1 R0_      0.142000
     13 H5          3.7390   -2.0170    2.5660 ha        1 R0_      0.142000
     14 H6         -0.1070   -1.0410    4.7450 h1        1 R0_      0.042800
     15 H7          0.3980    0.5390    4.0690 h1        1 R0_      0.042800
     16 H8          1.0020    0.0120    5.6620 h1        1 R0_      0.042800
@<TRIPOS>BOND
     1    1    2 ar  
     2    1    3 ar  
     3    2    4 ar  
     4    3    5 ar  
     5    4    6 ar  
     6    5    6 ar  
     7    6    8 1   
     8    7    8 1   
     9    1    9 1   
    10    2   10 1   
    11    3   11 1   
    12    4   12 1   
    13    5   13 1   
    14    7   14 1   
    15    7   15 1   
    16    7   16 1   
@<TRIPOS>SUBSTRUCTURE
     1 R0_         1 TEMP              0 ****  ****    0 ROOT
