@<TRIPOS>MOLECULE
trimethyl
   20    19     1     0     0
SMALL
No Charge or Current Charge


@<TRIPOS>ATOM
      1 C1         -0.0480   -0.9850   -0.3150 c3        1 TRI      0.125300
      2 C2         -2.7160    0.3590    1.3310 c3        1 TRI      0.132800
      3 C3         -2.5540   -3.7030    1.4930 c3        1 TRI      0.126900
      4 C4         -1.3550   -1.5980    1.6330 c3        1 TRI      0.507700
      5 C5         -0.1310   -2.0160    2.4570 c3        1 TRI      0.610000
      6 O1         -1.1220   -1.7450    0.2210 os        1 TRI     -0.451300
      7 O2         -1.6020   -0.2210    1.9980 os        1 TRI     -0.424400
      8 O3         -2.4890   -2.3940    2.0420 os        1 TRI     -0.415400
      9 F1          0.9460   -1.2600    2.1410 f         1 TRI     -0.223500
     10 F2          0.2100   -3.3040    2.2280 f         1 TRI     -0.236000
     11 F3         -0.3480   -1.8860    3.7840 f         1 TRI     -0.220200
     12 H1          0.0340   -1.1750   -1.3870 h1        1 TRI      0.069400
     13 H2          0.8820   -1.2630    0.1880 h1        1 TRI      0.041200
     14 H3         -0.2460    0.0760   -0.1490 h1        1 TRI      0.044300
     15 H4         -2.8390    1.3950    1.6570 h1        1 TRI      0.064000
     16 H5         -3.6180   -0.2150    1.5580 h1        1 TRI      0.049700
     17 H6         -2.5350    0.3380    0.2530 h1        1 TRI      0.039300
     18 H7         -3.4460   -4.2120    1.8680 h1        1 TRI      0.068800
     19 H8         -1.6580   -4.2620    1.7750 h1        1 TRI      0.040800
     20 H9         -2.6090   -3.6300    0.4050 h1        1 TRI      0.050600
@<TRIPOS>BOND
     1    1    6 1   
     2    2    7 1   
     3    3    8 1   
     4    4    5 1   
     5    4    6 1   
     6    4    7 1   
     7    4    8 1   
     8    5    9 1   
     9    5   10 1   
    10    5   11 1   
    11    1   12 1   
    12    1   13 1   
    13    1   14 1   
    14    2   15 1   
    15    2   16 1   
    16    2   17 1   
    17    3   18 1   
    18    3   19 1   
    19    3   20 1   
@<TRIPOS>SUBSTRUCTURE
     1 TRI         1 TEMP              0 ****  ****    0 ROOT
