@<TRIPOS>MOLECULE
N_acetylpyrrolidine
   19    19     1     0     0
SMALL
No Charge or Current Charge


@<TRIPOS>ATOM
      1 C1         -0.8580   -2.3750    3.1480 c         1 R0_      0.663500
      2 C2         -0.1850   -1.0590   -0.2180 c3        1 R0_     -0.093500
      3 C3          1.0830   -1.8650    0.0350 c3        1 R0_     -0.093500
      4 C4         -1.1610   -1.6370    0.7940 c3        1 R0_      0.098700
      5 C5          1.0860   -2.0290    1.5490 c3        1 R0_      0.098700
      6 C6          0.1450   -2.7770    4.2010 c3        1 R0_     -0.163900
      7 N1         -0.3270   -2.0400    1.9170 n         1 R0_     -0.495200
      8 O1         -2.0620   -2.3650    3.4060 o         1 R0_     -0.611400
      9 H1          0.0010    0.0000   -0.0010 hc        1 R0_      0.054700
     10 H2         -0.5470   -1.1400   -1.2470 hc        1 R0_      0.054700
     11 H3          1.0000   -2.8450   -0.4490 hc        1 R0_      0.054700
     12 H4          1.9860   -1.3730   -0.3360 hc        1 R0_      0.054700
     13 H5         -1.9250   -0.9220    1.1130 h1        1 R0_      0.047500
     14 H6         -1.6570   -2.5350    0.4080 h1        1 R0_      0.047500
     15 H7          1.5810   -2.9470    1.8780 h1        1 R0_      0.047500
     16 H8          1.5530   -1.1720    2.0460 h1        1 R0_      0.047500
     17 H9          0.9900   -2.0990    4.1310 hc        1 R0_      0.062800
     18 H10         0.4590   -3.7960    4.0030 hc        1 R0_      0.062800
     19 H11        -0.3280   -2.6930    5.1740 hc        1 R0_      0.062800
@<TRIPOS>BOND
     1    1    6 1   
     2    1    7 1   
     3    1    8 2   
     4    2    3 1   
     5    2    4 1   
     6    3    5 1   
     7    4    7 1   
     8    5    7 1   
     9    2    9 1   
    10    2   10 1   
    11    3   11 1   
    12    3   12 1   
    13    4   13 1   
    14    4   14 1   
    15    5   15 1   
    16    5   16 1   
    17    6   17 1   
    18    6   18 1   
    19    6   19 1   
@<TRIPOS>SUBSTRUCTURE
     1 R0_         1 TEMP              0 ****  ****    0 ROOT
