@<TRIPOS>MOLECULE
ethyl_pentanoate
   23    22     1     0     0
SMALL
No Charge or Current Charge


@<TRIPOS>ATOM
      1 C1          2.1310    1.0100    4.6320 c         1 R0_      0.630800
      2 C2         -0.5100    0.8300    0.3440 c3        1 R0_     -0.089800
      3 C3          2.9010    1.1610    8.2090 c3        1 R0_     -0.109300
      4 C4          0.7560    1.0090    4.0030 c3        1 R0_     -0.125000
      5 C5         -0.5730    0.9180    1.8600 c3        1 R0_     -0.079900
      6 C6          0.8240    0.9590    2.4780 c3        1 R0_     -0.076700
      7 C7          3.2200    1.0850    6.7310 c3        1 R0_      0.138600
      8 O1          3.1880    0.9580    4.0180 o         1 R0_     -0.542200
      9 O2          1.9960    1.0770    5.9900 os        1 R0_     -0.445300
     10 H1          0.0110    1.6950   -0.0780 hc        1 R0_      0.033800
     11 H2          0.0150   -0.0770    0.0260 hc        1 R0_      0.033800
     12 H3         -1.5200    0.8030   -0.0770 hc        1 R0_      0.033800
     13 H4          3.8170    1.1690    8.8060 hc        1 R0_      0.046800
     14 H5          2.3250    2.0650    8.4330 hc        1 R0_      0.046800
     15 H6          2.2860    0.3080    8.5160 hc        1 R0_      0.046800
     16 H7          0.2100    0.1360    4.3780 hc        1 R0_      0.076400
     17 H8          0.2350    1.9190    4.3200 hc        1 R0_      0.076400
     18 H9         -1.1330    1.8170    2.1450 hc        1 R0_      0.042500
     19 H10        -1.1270    0.0550    2.2480 hc        1 R0_      0.042500
     20 H11         1.3690    1.8350    2.1040 hc        1 R0_      0.053700
     21 H12         1.3930    0.0760    2.1620 hc        1 R0_      0.053700
     22 H13         3.7750    0.1690    6.5050 h1        1 R0_      0.055800
     23 H14         3.8140    1.9500    6.4210 h1        1 R0_      0.055800
@<TRIPOS>BOND
     1    1    4 1   
     2    1    8 2   
     3    1    9 1   
     4    2    5 1   
     5    3    7 1   
     6    4    6 1   
     7    5    6 1   
     8    7    9 1   
     9    2   10 1   
    10    2   11 1   
    11    2   12 1   
    12    3   13 1   
    13    3   14 1   
    14    3   15 1   
    15    4   16 1   
    16    4   17 1   
    17    5   18 1   
    18    5   19 1   
    19    6   20 1   
    20    6   21 1   
    21    7   22 1   
    22    7   23 1   
@<TRIPOS>SUBSTRUCTURE
     1 R0_         1 TEMP              0 ****  ****    0 ROOT
