@<TRIPOS>MOLECULE
dimethyl_sulfone
   11    10     1     0     0
SMALL
No Charge or Current Charge


@<TRIPOS>ATOM
      1 C1          1.0620    0.2380    0.0930 c3        1 R0_     -0.365900
      2 C2          3.0250    1.5690    1.5420 c3        1 R0_     -0.365900
      3 O1          0.9470    0.4790    2.6930 o         1 R0_     -0.655500
      4 O2          0.6110    2.5320    1.2630 o         1 R0_     -0.655500
      5 S1          1.2750    1.2690    1.5230 s6        1 R0_      1.353100
      6 H1          0.2520   -0.4650    0.2930 h1        1 R0_      0.115000
      7 H2          0.8130    0.8750   -0.7570 h1        1 R0_      0.115000
      8 H3          1.9960   -0.2960   -0.0890 h1        1 R0_      0.115000
      9 H4          3.1990    2.6110    1.2690 h1        1 R0_      0.115000
     10 H5          3.3970    1.3710    2.5480 h1        1 R0_      0.115000
     11 H6          3.4970    0.9010    0.8200 h1        1 R0_      0.115000
@<TRIPOS>BOND
     1    1    5 1   
     2    2    5 1   
     3    3    5 2   
     4    4    5 2   
     5    1    6 1   
     6    1    7 1   
     7    1    8 1   
     8    2    9 1   
     9    2   10 1   
    10    2   11 1   
@<TRIPOS>SUBSTRUCTURE
     1 R0_         1 TEMP              0 ****  ****    0 ROOT
