@<TRIPOS>MOLECULE
4_ethylphenol
   19    19     1     0     0
SMALL
No Charge or Current Charge


@<TRIPOS>ATOM
      1 C1          0.8180   -0.4390    0.5640 ca        1 R0_     -0.092000
      2 C2          2.9370   -1.5970    0.6200 ca        1 R0_     -0.092000
      3 C3          0.7990   -0.4060    1.9590 ca        1 R0_     -0.182900
      4 C4          2.9180   -1.5650    2.0140 ca        1 R0_     -0.182900
      5 C5          1.8870   -1.0340   -0.1050 ca        1 R0_     -0.102800
      6 C6          1.8500   -0.9690    2.6840 ca        1 R0_      0.120200
      7 C7          1.2380   -2.3200   -2.1570 c3        1 R0_     -0.086900
      8 C8          1.9070   -1.0680   -1.5960 c3        1 R0_     -0.040700
      9 O1          1.8300   -0.9380    4.0440 oh        1 R0_     -0.500000
     10 H1         -0.0040    0.0040    0.0080 ha        1 R0_      0.133300
     11 H2          3.7740   -2.0630    0.1060 ha        1 R0_      0.133300
     12 H3         -0.0350    0.0600    2.4750 ha        1 R0_      0.140900
     13 H4          3.7400   -2.0040    2.5730 ha        1 R0_      0.140900
     14 H5          1.7430   -3.2270   -1.8070 hc        1 R0_      0.034800
     15 H6          1.2670   -2.3180   -3.2510 hc        1 R0_      0.034800
     16 H7          0.1900   -2.3780   -1.8460 hc        1 R0_      0.034800
     17 H8          1.4060   -0.1770   -2.0080 hc        1 R0_      0.044200
     18 H9          2.9430   -1.0170   -1.9670 hc        1 R0_      0.044200
     19 H10         1.1750   -0.2780    4.3350 ho        1 R0_      0.418600
@<TRIPOS>BOND
     1    1    3 ar  
     2    1    5 ar  
     3    2    4 ar  
     4    2    5 ar  
     5    3    6 ar  
     6    4    6 ar  
     7    5    8 1   
     8    6    9 1   
     9    7    8 1   
    10    1   10 1   
    11    2   11 1   
    12    3   12 1   
    13    4   13 1   
    14    7   14 1   
    15    7   15 1   
    16    7   16 1   
    17    8   17 1   
    18    8   18 1   
    19    9   19 1   
@<TRIPOS>SUBSTRUCTURE
     1 R0_         1 TEMP              0 ****  ****    0 ROOT
