@<TRIPOS>MOLECULE
3_methylbutan_1_ol
   18    17     1     0     0
SMALL
No Charge or Current Charge


@<TRIPOS>ATOM
      1 C1          0.1990   -1.0770    0.0120 c3        1 R0_     -0.088200
      2 C2         -2.1580   -1.6370   -0.6190 c3        1 R0_     -0.088200
      3 C3         -0.3810   -1.3240   -2.4190 c3        1 R0_     -0.097700
      4 C4         -0.5920    0.1740   -2.6080 c3        1 R0_      0.131700
      5 C5         -0.6860   -1.8170   -0.9950 c3        1 R0_     -0.064100
      6 O1         -0.2990    0.5080   -3.9590 oh        1 R0_     -0.602000
      7 H1          0.0210   -1.4430    1.0290 hc        1 R0_      0.033600
      8 H2          0.0000    0.0000    0.0000 hc        1 R0_      0.033600
      9 H3          1.2590   -1.2290   -0.2160 hc        1 R0_      0.033600
     10 H4         -2.4690   -0.5920   -0.7250 hc        1 R0_      0.033600
     11 H5         -2.3330   -1.9380    0.4190 hc        1 R0_      0.033600
     12 H6         -2.8080   -2.2520   -1.2480 hc        1 R0_      0.033600
     13 H7         -1.0180   -1.8580   -3.1360 hc        1 R0_      0.046900
     14 H8          0.6490   -1.5810   -2.6990 hc        1 R0_      0.046900
     15 H9         -1.6290    0.4520   -2.3990 h1        1 R0_      0.033900
     16 H10         0.0730    0.7560   -1.9640 h1        1 R0_      0.033900
     17 H11        -0.4440   -2.8850   -0.9330 hc        1 R0_      0.048500
     18 H12        -1.1510    0.6360   -4.4060 ho        1 R0_      0.397200
@<TRIPOS>BOND
     1    1    5 1   
     2    2    5 1   
     3    3    4 1   
     4    3    5 1   
     5    4    6 1   
     6    1    7 1   
     7    1    8 1   
     8    1    9 1   
     9    2   10 1   
    10    2   11 1   
    11    2   12 1   
    12    3   13 1   
    13    3   14 1   
    14    4   15 1   
    15    4   16 1   
    16    5   17 1   
    17    6   18 1   
@<TRIPOS>SUBSTRUCTURE
     1 R0_         1 TEMP              0 ****  ****    0 ROOT
