@<TRIPOS>MOLECULE
chloroethane
    8     7     1     0     0
SMALL
No Charge or Current Charge


@<TRIPOS>ATOM
      1 C1          0.1540   -0.7250    0.8060 c3        1 R0_     -0.104200
      2 C2          1.3670   -0.3680    1.6390 c3        1 R0_      0.041200
      3 Cl1         2.8320   -0.3570    0.6340 cl        1 R0_     -0.203000
      4 H1         -0.7440   -0.7300    1.4310 hc        1 R0_      0.047500
      5 H2          0.0000   -0.0000    0.0000 hc        1 R0_      0.047500
      6 H3          0.2590   -1.7190    0.3590 hc        1 R0_      0.047500
      7 H4          1.5140   -1.0960    2.4420 h1        1 R0_      0.061700
      8 H5          1.2550    0.6250    2.0830 h1        1 R0_      0.061700
@<TRIPOS>BOND
     1    1    2 1   
     2    2    3 1   
     3    1    4 1   
     4    1    5 1   
     5    1    6 1   
     6    2    7 1   
     7    2    8 1   
@<TRIPOS>SUBSTRUCTURE
     1 R0_         1 TEMP              0 ****  ****    0 ROOT
