@<TRIPOS>MOLECULE
trans_14_dimethylcyclohexane
   24    24     1     0     0
SMALL
No Charge or Current Charge


@<TRIPOS>ATOM
      1 C1          0.8700   -0.5730    0.3460 c3        1 R0_     -0.069600
      2 C2          1.8750    0.3800    0.9910 c3        1 R0_     -0.069600
      3 C3         -0.1310   -1.0530    2.6150 c3        1 R0_     -0.069600
      4 C4          0.8740   -0.1000    3.2590 c3        1 R0_     -0.069600
      5 C5          0.4200   -1.6680    1.3220 c3        1 R0_     -0.062800
      6 C6          1.3240    0.9950    2.2840 c3        1 R0_     -0.062800
      7 C7         -0.6220   -2.5760    0.6710 c3        1 R0_     -0.086400
      8 C8          2.3640    1.9030    2.9350 c3        1 R0_     -0.086400
      9 H1         -0.0020   -0.0020    0.0010 hc        1 R0_      0.037500
     10 H2          1.3220   -1.0300   -0.5420 hc        1 R0_      0.037500
     11 H3          2.8040   -0.1640    1.2040 hc        1 R0_      0.037500
     12 H4          2.1280    1.1750    0.2800 hc        1 R0_      0.037500
     13 H5         -0.3850   -1.8480    3.3260 hc        1 R0_      0.037500
     14 H6         -1.0600   -0.5090    2.4010 hc        1 R0_      0.037500
     15 H7          0.4220    0.3560    4.1480 hc        1 R0_      0.037500
     16 H8          1.7460   -0.6720    3.6040 hc        1 R0_      0.037500
     17 H9          1.2890   -2.2890    1.5740 hc        1 R0_      0.042500
     18 H10         0.4540    1.6150    2.0310 hc        1 R0_      0.042500
     19 H11        -1.3370   -2.9360    1.4160 hc        1 R0_      0.031900
     20 H12        -1.1740   -2.0350   -0.1030 hc        1 R0_      0.031900
     21 H13        -0.1410   -3.4430    0.2080 hc        1 R0_      0.031900
     22 H14         3.3230    1.8260    2.4130 hc        1 R0_      0.031900
     23 H15         2.0370    2.9470    2.9020 hc        1 R0_      0.031900
     24 H16         2.5180    1.6230    3.9810 hc        1 R0_      0.031900
@<TRIPOS>BOND
     1    1    2 1   
     2    1    5 1   
     3    2    6 1   
     4    3    4 1   
     5    3    5 1   
     6    4    6 1   
     7    5    7 1   
     8    6    8 1   
     9    1    9 1   
    10    1   10 1   
    11    2   11 1   
    12    2   12 1   
    13    3   13 1   
    14    3   14 1   
    15    4   15 1   
    16    4   16 1   
    17    5   17 1   
    18    6   18 1   
    19    7   19 1   
    20    7   20 1   
    21    7   21 1   
    22    8   22 1   
    23    8   23 1   
    24    8   24 1   
@<TRIPOS>SUBSTRUCTURE
     1 R0_         1 TEMP              0 ****  ****    0 ROOT
