@<TRIPOS>MOLECULE
4_bromotoluene
   15    15     1     0     0
SMALL
No Charge or Current Charge


@<TRIPOS>ATOM
      1 C1          0.8180   -0.4390    0.5640 ca        1 R0_     -0.132300
      2 C2          2.9370   -1.5970    0.6200 ca        1 R0_     -0.132300
      3 C3          0.7990   -0.4060    1.9590 ca        1 R0_     -0.099400
      4 C4          2.9180   -1.5650    2.0140 ca        1 R0_     -0.099400
      5 C5          1.8870   -1.0340   -0.1050 ca        1 R0_     -0.052700
      6 C6          1.8500   -0.9690    2.6840 ca        1 R0_     -0.032100
      7 C7          1.9080   -1.0700   -1.5960 c3        1 R0_     -0.064400
      8 Br1         1.8250   -0.9240    4.5730 br        1 R0_     -0.092100
      9 H1         -0.0050    0.0030    0.0080 ha        1 R0_      0.137000
     10 H2          3.7740   -2.0640    0.1070 ha        1 R0_      0.137000
     11 H3         -0.0410    0.0620    2.4660 ha        1 R0_      0.145400
     12 H4          3.7450   -2.0070    2.5640 ha        1 R0_      0.145400
     13 H5          2.1040   -2.0890   -1.9510 hc        1 R0_      0.046700
     14 H6          0.9510   -0.7330   -2.0160 hc        1 R0_      0.046700
     15 H7          2.6830   -0.4050   -1.9990 hc        1 R0_      0.046700
@<TRIPOS>BOND
     1    1    3 ar  
     2    1    5 ar  
     3    2    4 ar  
     4    2    5 ar  
     5    3    6 ar  
     6    4    6 ar  
     7    5    7 1   
     8    6    8 1   
     9    1    9 1   
    10    2   10 1   
    11    3   11 1   
    12    4   12 1   
    13    7   13 1   
    14    7   14 1   
    15    7   15 1   
@<TRIPOS>SUBSTRUCTURE
     1 R0_         1 TEMP              0 ****  ****    0 ROOT
