@<TRIPOS>MOLECULE
hex_1_ene
   18    17     1     0     0
SMALL
No Charge or Current Charge


@<TRIPOS>ATOM
      1 C1          0.9440    0.3050    0.2520 c2        1 R0_     -0.225500
      2 C2          1.1780    1.2380    1.1820 c2        1 R0_     -0.163800
      3 C3         -1.0760    2.5860    5.4620 c3        1 R0_     -0.089600
      4 C4          0.1110    2.0900    1.8030 c3        1 R0_     -0.049200
      5 C5         -1.0220    2.7710    3.9540 c3        1 R0_     -0.078400
      6 C6          0.0870    1.9290    3.3250 c3        1 R0_     -0.072700
      7 H1          1.7610   -0.2750   -0.1620 ha        1 R0_      0.110300
      8 H2         -0.0590    0.1040   -0.1100 ha        1 R0_      0.110300
      9 H3          2.2020    1.4030    1.5070 ha        1 R0_      0.118200
     10 H4         -1.2680    1.5400    5.7220 hc        1 R0_      0.031600
     11 H5         -1.8780    3.1950    5.8910 hc        1 R0_      0.031600
     12 H6         -0.1330    2.8880    5.9290 hc        1 R0_      0.031600
     13 H7         -0.8740    1.8410    1.3910 hc        1 R0_      0.044800
     14 H8          0.3090    3.1370    1.5440 hc        1 R0_      0.044800
     15 H9         -1.9910    2.4930    3.5230 hc        1 R0_      0.038200
     16 H10        -0.8580    3.8320    3.7280 hc        1 R0_      0.038200
     17 H11         1.0560    2.2260    3.7460 hc        1 R0_      0.039800
     18 H12        -0.0640    0.8730    3.5830 hc        1 R0_      0.039800
@<TRIPOS>BOND
     1    1    2 2   
     2    2    4 1   
     3    3    5 1   
     4    4    6 1   
     5    5    6 1   
     6    1    7 1   
     7    1    8 1   
     8    2    9 1   
     9    3   10 1   
    10    3   11 1   
    11    3   12 1   
    12    4   13 1   
    13    4   14 1   
    14    5   15 1   
    15    5   16 1   
    16    6   17 1   
    17    6   18 1   
@<TRIPOS>SUBSTRUCTURE
     1 R0_         1 TEMP              0 ****  ****    0 ROOT
