@<TRIPOS>MOLECULE
m_cresol
   16    16     1     0     0
SMALL
No Charge or Current Charge


@<TRIPOS>ATOM
      1 C1          0.8320   -0.3950    0.5750 ca        1 R0_     -0.088500
      2 C2          1.8990   -1.0140   -0.0770 ca        1 R0_     -0.166500
      3 C3          0.8350   -0.2830    1.9660 ca        1 R0_     -0.218200
      4 C4          2.9710   -1.4090    2.0520 ca        1 R0_     -0.158800
      5 C5          2.9680   -1.5200    0.6620 ca        1 R0_     -0.033400
      6 C6          1.9040   -0.7900    2.7040 ca        1 R0_      0.127000
      7 C7          4.1090   -2.1820   -0.0350 c3        1 R0_     -0.063300
      8 O1          1.9060   -0.6800    4.0610 oh        1 R0_     -0.500700
      9 H1         -0.0010   -0.0010    0.0000 ha        1 R0_      0.131700
     10 H2          1.8890   -1.0960   -1.1600 ha        1 R0_      0.133000
     11 H3          0.0010    0.2000    2.4670 ha        1 R0_      0.132500
     12 H4          3.8030   -1.8030    2.6310 ha        1 R0_      0.149500
     13 H5          4.8780   -2.4790    0.6880 hc        1 R0_      0.045600
     14 H6          3.7790   -3.0760   -0.5800 hc        1 R0_      0.045600
     15 H7          4.5670   -1.5110   -0.7740 hc        1 R0_      0.045600
     16 H8          1.2260   -0.0340    4.3260 ho        1 R0_      0.418800
@<TRIPOS>BOND
     1    1    2 ar  
     2    1    3 ar  
     3    2    5 ar  
     4    3    6 ar  
     5    4    5 ar  
     6    4    6 ar  
     7    5    7 1   
     8    6    8 1   
     9    1    9 1   
    10    2   10 1   
    11    3   11 1   
    12    4   12 1   
    13    7   13 1   
    14    7   14 1   
    15    7   15 1   
    16    8   16 1   
@<TRIPOS>SUBSTRUCTURE
     1 R0_         1 TEMP              0 ****  ****    0 ROOT
