@<TRIPOS>MOLECULE
n_butanethiol
   15    14     1     0     0
SMALL
No Charge or Current Charge


@<TRIPOS>ATOM
      1 C1          0.8880   -0.0990   -0.6260 c3        1 R0_     -0.093100
      2 C2          0.8880   -1.4200   -1.3800 c3        1 R0_     -0.079500
      3 C3         -0.3380   -1.5430   -2.2870 c3        1 R0_     -0.074800
      4 C4         -0.4450   -2.8930   -2.9950 c3        1 R0_      0.012700
      5 S1          0.9540   -3.2250   -4.1060 sh        1 R0_     -0.381900
      6 H1          1.7690   -0.0300    0.0200 hc        1 R0_      0.034900
      7 H2         -0.0030   -0.0060    0.0040 hc        1 R0_      0.034900
      8 H3          0.9080    0.7480   -1.3190 hc        1 R0_      0.034900
      9 H4          0.9010   -2.2440   -0.6580 hc        1 R0_      0.041400
     10 H5          1.8110   -1.4870   -1.9660 hc        1 R0_      0.041400
     11 H6         -0.3460   -0.7280   -3.0220 hc        1 R0_      0.050200
     12 H7         -1.2400   -1.4130   -1.6750 hc        1 R0_      0.050200
     13 H8         -0.5110   -3.7050   -2.2640 h1        1 R0_      0.065500
     14 H9         -1.3590   -2.9160   -3.5980 h1        1 R0_      0.065500
     15 H10         1.1280   -4.5000   -3.7360 hs        1 R0_      0.197700
@<TRIPOS>BOND
     1    1    2 1   
     2    2    3 1   
     3    3    4 1   
     4    4    5 1   
     5    1    6 1   
     6    1    7 1   
     7    1    8 1   
     8    2    9 1   
     9    2   10 1   
    10    3   11 1   
    11    3   12 1   
    12    4   13 1   
    13    4   14 1   
    14    5   15 1   
@<TRIPOS>SUBSTRUCTURE
     1 R0_         1 TEMP              0 ****  ****    0 ROOT
