@<TRIPOS>MOLECULE
24_dimethylphenol
   19    19     1     0     0
SMALL
No Charge or Current Charge


@<TRIPOS>ATOM
      1 C1          0.8180   -0.4390    0.5640 ca        1 R0_     -0.097800
      2 C2          0.7990   -0.4060    1.9590 ca        1 R0_     -0.205700
      3 C3          2.9370   -1.5970    0.6200 ca        1 R0_     -0.100900
      4 C4          1.8870   -1.0340   -0.1050 ca        1 R0_     -0.098200
      5 C5          2.9180   -1.5650    2.0140 ca        1 R0_     -0.085700
      6 C6          1.8500   -0.9690    2.6840 ca        1 R0_      0.115200
      7 C7          1.9060   -1.0690   -1.5960 c3        1 R0_     -0.054800
      8 C8          4.0520   -2.1710    2.7740 c3        1 R0_     -0.048900
      9 O1          1.8160   -0.9290    4.0450 oh        1 R0_     -0.499200
     10 H1         -0.0050    0.0020    0.0080 ha        1 R0_      0.132000
     11 H2         -0.0360    0.0590    2.4740 ha        1 R0_      0.131700
     12 H3          3.7700   -2.0610    0.0970 ha        1 R0_      0.134000
     13 H4          2.1010   -2.0880   -1.9520 hc        1 R0_      0.041200
     14 H5          0.9490   -0.7310   -2.0150 hc        1 R0_      0.041200
     15 H6          2.6820   -0.4050   -2.0000 hc        1 R0_      0.041200
     16 H7          4.5550   -1.4080    3.3790 hc        1 R0_      0.045600
     17 H8          3.7010   -2.9690    3.4400 hc        1 R0_      0.045600
     18 H9          4.7880   -2.6210    2.0960 hc        1 R0_      0.045600
     19 H10         1.1580   -0.2660    4.3230 ho        1 R0_      0.417600
@<TRIPOS>BOND
     1    1    2 ar  
     2    1    4 ar  
     3    2    6 ar  
     4    3    4 ar  
     5    3    5 ar  
     6    4    7 1   
     7    5    6 ar  
     8    5    8 1   
     9    6    9 1   
    10    1   10 1   
    11    2   11 1   
    12    3   12 1   
    13    7   13 1   
    14    7   14 1   
    15    7   15 1   
    16    8   16 1   
    17    8   17 1   
    18    8   18 1   
    19    9   19 1   
@<TRIPOS>SUBSTRUCTURE
     1 R0_         1 TEMP              0 ****  ****    0 ROOT
