@<TRIPOS>MOLECULE
pentan_2_one
   16    15     1     0     0
SMALL
No Charge or Current Charge


@<TRIPOS>ATOM
      1 C1          0.3030    1.1400   -1.7830 c         1 R0_      0.559800
      2 C2          0.3780    1.0130   -0.2830 c3        1 R0_     -0.199600
      3 C3          1.9180   -0.5870   -4.8560 c3        1 R0_     -0.092800
      4 C4          1.1480    0.1610   -2.5790 c3        1 R0_     -0.180300
      5 C5          1.0380    0.3830   -4.0850 c3        1 R0_     -0.070300
      6 O1         -0.4070    1.9930   -2.3120 o         1 R0_     -0.528700
      7 H1          1.4060    1.1780    0.0480 hc        1 R0_      0.062000
      8 H2          0.0390    0.0190    0.0180 hc        1 R0_      0.062000
      9 H3         -0.2680    1.7630    0.1840 hc        1 R0_      0.062000
     10 H4          1.6280   -1.6230   -4.6560 hc        1 R0_      0.036100
     11 H5          2.9700   -0.4650   -4.5820 hc        1 R0_      0.036100
     12 H6          1.8240   -0.4100   -5.9320 hc        1 R0_      0.036100
     13 H7          0.8160   -0.8530   -2.3260 hc        1 R0_      0.062900
     14 H8          2.1890    0.2770   -2.2590 hc        1 R0_      0.062900
     15 H9         -0.0030    0.2620   -4.4060 hc        1 R0_      0.045900
     16 H10         1.3280    1.4110   -4.3330 hc        1 R0_      0.045900
@<TRIPOS>BOND
     1    1    2 1   
     2    1    4 1   
     3    1    6 2   
     4    3    5 1   
     5    4    5 1   
     6    2    7 1   
     7    2    8 1   
     8    2    9 1   
     9    3   10 1   
    10    3   11 1   
    11    3   12 1   
    12    4   13 1   
    13    4   14 1   
    14    5   15 1   
    15    5   16 1   
@<TRIPOS>SUBSTRUCTURE
     1 R0_         1 TEMP              0 ****  ****    0 ROOT
