@<TRIPOS>MOLECULE
methyl_tert_butyl_ether
   18    17     1     0     0
SMALL
No Charge or Current Charge


@<TRIPOS>ATOM
      1 C1         -0.4650   -0.0650    0.9890 c3        1 R0_     -0.104700
      2 C2          1.6270    0.6910    2.1570 c3        1 R0_     -0.104700
      3 C3          1.2040   -1.7600    1.8120 c3        1 R0_     -0.104700
      4 C4         -1.1270   -1.4330    3.3390 c3        1 R0_      0.121100
      5 C5          0.5610   -0.3990    2.0720 c3        1 R0_      0.148000
      6 O1         -0.1080   -0.4450    3.3330 os        1 R0_     -0.420100
      7 H1         -0.9610    0.8890    1.2040 hc        1 R0_      0.041700
      8 H2          0.0000    0.0000    0.0000 hc        1 R0_      0.041700
      9 H3         -1.2550   -0.8230    0.9520 hc        1 R0_      0.041700
     10 H4          2.3380    0.4800    2.9640 hc        1 R0_      0.041700
     11 H5          1.1750    1.6620    2.3900 hc        1 R0_      0.041700
     12 H6          2.1850    0.7840    1.2190 hc        1 R0_      0.041700
     13 H7          0.4460   -2.5520    1.7870 hc        1 R0_      0.041700
     14 H8          1.7490   -1.7740    0.8630 hc        1 R0_      0.041700
     15 H9          1.8990   -2.0230    2.6170 hc        1 R0_      0.041700
     16 H10        -0.7750   -2.3170    3.8770 h1        1 R0_      0.030000
     17 H11        -1.3850   -1.6980    2.3110 h1        1 R0_      0.030000
     18 H12        -2.0090   -1.0300    3.8420 h1        1 R0_      0.030000
@<TRIPOS>BOND
     1    1    5 1   
     2    2    5 1   
     3    3    5 1   
     4    4    6 1   
     5    5    6 1   
     6    1    7 1   
     7    1    8 1   
     8    1    9 1   
     9    2   10 1   
    10    2   11 1   
    11    2   12 1   
    12    3   13 1   
    13    3   14 1   
    14    3   15 1   
    15    4   16 1   
    16    4   17 1   
    17    4   18 1   
@<TRIPOS>SUBSTRUCTURE
     1 R0_         1 TEMP              0 ****  ****    0 ROOT
