@<TRIPOS>MOLECULE
methyl_hexanoate
   23    22     1     0     0
SMALL
No Charge or Current Charge


@<TRIPOS>ATOM
      1 C1          1.5900    0.9610    6.3330 c         1 R0_      0.628300
      2 C2          0.0860    1.1280    0.1340 c3        1 R0_     -0.090500
      3 C3          2.6050    0.7410    8.4590 c3        1 R0_      0.128100
      4 C4          1.7850    0.6050    4.8760 c3        1 R0_     -0.124600
      5 C5         -0.1410    1.4630    1.6000 c3        1 R0_     -0.076800
      6 C6          0.7150    1.2020    3.9620 c3        1 R0_     -0.075600
      7 C7          0.9240    0.8240    2.4920 c3        1 R0_     -0.078500
      8 O1          0.6590    1.6170    6.7800 o         1 R0_     -0.538500
      9 O2          2.6330    0.4570    7.0560 os        1 R0_     -0.443600
     10 H1          1.0610    1.4940   -0.2050 hc        1 R0_      0.033100
     11 H2          0.0470    0.0470   -0.0320 hc        1 R0_      0.033100
     12 H3         -0.6860    1.5950   -0.4850 hc        1 R0_      0.033100
     13 H4          3.2410    0.0270    8.9890 h1        1 R0_      0.049400
     14 H5          1.5780    0.6720    8.8250 h1        1 R0_      0.049400
     15 H6          2.9820    1.7530    8.6240 h1        1 R0_      0.049400
     16 H7          1.7930   -0.4860    4.7710 hc        1 R0_      0.076700
     17 H8          2.7670    0.9890    4.5780 hc        1 R0_      0.076700
     18 H9         -1.1360    1.1130    1.8990 hc        1 R0_      0.038600
     19 H10        -0.1280    2.5520    1.7260 hc        1 R0_      0.038600
     20 H11         0.7510    2.2950    4.0550 hc        1 R0_      0.054200
     21 H12        -0.2820    0.8870    4.2890 hc        1 R0_      0.054200
     22 H13         0.8890   -0.2650    2.3740 hc        1 R0_      0.042600
     23 H14         1.9190    1.1510    2.1670 hc        1 R0_      0.042600
@<TRIPOS>BOND
     1    1    4 1   
     2    1    8 2   
     3    1    9 1   
     4    2    5 1   
     5    3    9 1   
     6    4    6 1   
     7    5    7 1   
     8    6    7 1   
     9    2   10 1   
    10    2   11 1   
    11    2   12 1   
    12    3   13 1   
    13    3   14 1   
    14    3   15 1   
    15    4   16 1   
    16    4   17 1   
    17    5   18 1   
    18    5   19 1   
    19    6   20 1   
    20    6   21 1   
    21    7   22 1   
    22    7   23 1   
@<TRIPOS>SUBSTRUCTURE
     1 R0_         1 TEMP              0 ****  ****    0 ROOT
