@<TRIPOS>MOLECULE
butan_1_ol
   15    14     1     0     0
SMALL
No Charge or Current Charge


@<TRIPOS>ATOM
      1 C1          0.4040   -1.0520   -0.1120 c3        1 R0_     -0.092400
      2 C2         -0.5800   -2.0240    0.5200 c3        1 R0_     -0.076300
      3 C3         -1.9310   -1.9920   -0.1890 c3        1 R0_     -0.112500
      4 C4         -2.9050   -2.9950    0.4140 c3        1 R0_      0.130700
      5 O1         -4.1330   -2.9260   -0.2970 oh        1 R0_     -0.601200
      6 H1          0.5780   -1.2990   -1.1640 hc        1 R0_      0.034100
      7 H2          0.0300   -0.0250   -0.0580 hc        1 R0_      0.034100
      8 H3          1.3650   -1.0920    0.4100 hc        1 R0_      0.034100
      9 H4         -0.1610   -3.0360    0.4790 hc        1 R0_      0.039700
     10 H5         -0.7080   -1.7680    1.5780 hc        1 R0_      0.039700
     11 H6         -2.3650   -0.9870   -0.1340 hc        1 R0_      0.046100
     12 H7         -1.8040   -2.2070   -1.2570 hc        1 R0_      0.046100
     13 H8         -2.5140   -4.0140    0.3360 h1        1 R0_      0.040200
     14 H9         -3.0990   -2.7670    1.4670 h1        1 R0_      0.040200
     15 H10        -3.9110   -2.9400   -1.2420 ho        1 R0_      0.397300
@<TRIPOS>BOND
     1    1    2 1   
     2    2    3 1   
     3    3    4 1   
     4    4    5 1   
     5    1    6 1   
     6    1    7 1   
     7    1    8 1   
     8    2    9 1   
     9    2   10 1   
    10    3   11 1   
    11    3   12 1   
    12    4   13 1   
    13    4   14 1   
    14    5   15 1   
@<TRIPOS>SUBSTRUCTURE
     1 R0_         1 TEMP              0 ****  ****    0 ROOT
