@<TRIPOS>MOLECULE
1,2,3,4,6,7,8,9-octachlorodibenzo-p-dioxin
   22    24     1     0     0
SMALL
No Charge or Current Charge


@<TRIPOS>ATOM
      1 C1         -3.5800   -0.9100    1.1630 ca        1 <0>      0.078500
      2 C2         -2.7270   -1.9050    0.6890 ca        1 <0>      0.079000
      3 C3         -5.2390   -2.4980    1.5120 ca        1 <0>      0.079300
      4 C4         -4.3860   -3.4940    1.0380 ca        1 <0>      0.079100
      5 C5         -3.1490    0.4150    1.2200 ca        1 <0>      0.031900
      6 C6         -1.4370   -1.5820    0.2690 ca        1 <0>      0.032100
      7 C7         -6.5290   -2.8210    1.9320 ca        1 <0>      0.032400
      8 C8         -4.8170   -4.8180    0.9820 ca        1 <0>      0.032400
      9 C9         -1.8580    0.7400    0.8000 ca        1 <0>      0.022900
     10 C10        -1.0040   -0.2570    0.3260 ca        1 <0>      0.022800
     11 C11        -6.9620   -4.1460    1.8750 ca        1 <0>      0.022500
     12 C12        -6.1070   -5.1430    1.4010 ca        1 <0>      0.022400
     13 O1         -4.8560   -1.1830    1.5850 os        1 <0>     -0.187400
     14 O2         -3.1090   -3.2200    0.6160 os        1 <0>     -0.187300
     15 Cl1        -4.2410    1.6280    1.8160 cl        1 <0>     -0.015500
     16 Cl2        -0.4030   -2.8500   -0.3160 cl        1 <0>     -0.015900
     17 Cl3        -7.5640   -1.5530    2.5160 cl        1 <0>     -0.014000
     18 Cl4        -3.7240   -6.0320    0.3850 cl        1 <0>     -0.014000
     19 Cl5        -1.3190    2.3950    0.8710 cl        1 <0>     -0.025000
     20 Cl6         0.6080    0.1470   -0.1990 cl        1 <0>     -0.025300
     21 Cl7        -8.5730   -4.5510    2.4000 cl        1 <0>     -0.025500
     22 Cl8        -6.6460   -6.7990    1.3300 cl        1 <0>     -0.025400
@<TRIPOS>BOND
     1    1    2 ar  
     2    1    5 ar  
     3    1   13 ar  
     4    2    6 ar  
     5    2   14 ar  
     6    3    4 ar  
     7    3    7 ar  
     8    3   13 ar  
     9    4    8 ar  
    10    4   14 ar  
    11    5    9 ar  
    12    5   15 1   
    13    6   10 ar  
    14    6   16 1   
    15    7   11 ar  
    16    7   17 1   
    17    8   12 ar  
    18    8   18 1   
    19    9   10 ar  
    20    9   19 1   
    21   10   20 1   
    22   11   12 ar  
    23   11   21 1   
    24   12   22 1   
@<TRIPOS>SUBSTRUCTURE
     1 <0>         1 TEMP              0 ****  ****    0 ROOT
