@<TRIPOS>MOLECULE
dimethylamine
   10     9     1     0     0
SMALL
No Charge or Current Charge


@<TRIPOS>ATOM
      1 C1          1.0280    0.1350    0.3510 c3        1 R0_      0.154000
      2 C2          2.3860    0.4590    2.3030 c3        1 R0_      0.154000
      3 N1          1.0300    0.2820    1.8000 n3        1 R0_     -0.829100
      4 H1          2.0050    0.3960   -0.0640 h1        1 R0_      0.027200
      5 H2          0.2720    0.7880   -0.0940 h1        1 R0_      0.027200
      6 H3          0.7950   -0.8980    0.0770 h1        1 R0_      0.027200
      7 H4          2.3700    0.8880    3.3090 h1        1 R0_      0.027200
      8 H5          2.9490    1.1270    1.6460 h1        1 R0_      0.027200
      9 H6          2.9030   -0.5040    2.3410 h1        1 R0_      0.027200
     10 H7          0.4690    1.0950    2.0560 hn        1 R0_      0.357900
@<TRIPOS>BOND
     1    1    3 1   
     2    2    3 1   
     3    1    4 1   
     4    1    5 1   
     5    1    6 1   
     6    2    7 1   
     7    2    8 1   
     8    2    9 1   
     9    3   10 1   
@<TRIPOS>SUBSTRUCTURE
     1 R0_         1 TEMP              0 ****  ****    0 ROOT
