@<TRIPOS>MOLECULE
DRG
   12    12     1     0     0
SMALL
bcc


@<TRIPOS>ATOM
      1 C1         -0.7600   -9.6100   -2.9100 cc        1 DRG      -0.1841
      2 C3         -0.0100   -8.8900   -1.9600 cd        1 DRG      -0.1841
      3 C2          1.2700   -9.3600   -1.6000 c         1 DRG       0.5376
      4 O3          1.9300   -8.7300   -0.7700 o         1 DRG      -0.4902
      5 C8          1.8200  -10.5400   -2.1500 cc        1 DRG      -0.1841
      6 C6          1.0700  -11.2600   -3.0900 cd        1 DRG      -0.1841
      7 C4         -0.2100  -10.7900   -3.4600 c         1 DRG       0.5376
      8 O4         -0.8700  -11.4200   -4.2800 o         1 DRG      -0.4902
      9 H0         -1.6660   -9.2920   -3.1900 ha        1 DRG       0.1604
     10 H1         -0.3800   -8.0580   -1.5470 ha        1 DRG       0.1604
     11 H2          2.7280  -10.8550   -1.8740 ha        1 DRG       0.1604
     12 H3          1.4370  -12.0980   -3.4950 ha        1 DRG       0.1604
@<TRIPOS>BOND
     1    1    2 2   
     2    1    7 1   
     3    1    9 1   
     4    2    3 1   
     5    2   10 1   
     6    3    4 2   
     7    3    5 1   
     8    5    6 2   
     9    5   11 1   
    10    6    7 1   
    11    6   12 1   
    12    7    8 2   
@<TRIPOS>SUBSTRUCTURE
     1 DRG         1 TEMP              0 ****  ****    0 ROOT
