@<TRIPOS>MOLECULE
SAMPL4_011
   23    23     1     0     0
SMALL
bcc


@<TRIPOS>ATOM
      1 C1          2.8440   -1.7000    3.2480 ca        1 TMP     -0.110000
      2 C2          1.6480   -0.9850    3.2960 ca        1 TMP     -0.189600
      3 C3          3.4250   -2.0050    2.0170 ca        1 TMP      0.039100
      4 C4          2.8100   -1.5940    0.8350 ca        1 TMP      0.123100
      5 C5          1.6130   -0.8790    0.8830 ca        1 TMP      0.080100
      6 C6          1.0320   -0.5750    2.1140 ca        1 TMP      0.050400
      7 C7          1.0810   -0.6920    4.6080 c         1 TMP      0.579500
      8 C8          5.1570   -3.0850    3.2370 c3        1 TMP      0.118700
      9 C9          0.0950   -1.3890   -0.8750 c3        1 TMP      0.113700
     10 O1          0.7560   -1.5700    5.4090 o         1 TMP     -0.531100
     11 O2          3.3800   -1.8930   -0.3680 oh        1 TMP     -0.481100
     12 O3          4.5940   -2.7040    1.9840 os        1 TMP     -0.346900
     13 O4          1.0260   -0.4860   -0.2840 os        1 TMP     -0.315900
     14 Cl1        -0.4540    0.3140    2.1630 cl        1 TMP     -0.061400
     15 H1          3.3290   -2.0230    4.1660 ha        1 TMP      0.169000
     16 H2          0.9450    0.3770    4.8740 h4        1 TMP      0.019200
     17 H3          6.0860   -3.6360    3.0680 h1        1 TMP      0.051367
     18 H4          4.4450   -3.7100    3.7820 h1        1 TMP      0.051367
     19 H5          5.3700   -2.1860    3.8200 h1        1 TMP      0.051367
     20 H6         -0.2990   -0.9560   -1.7980 h1        1 TMP      0.048367
     21 H7         -0.7210   -1.5840   -0.1740 h1        1 TMP      0.048367
     22 H8          0.6070   -2.3270   -1.1050 h1        1 TMP      0.048367
     23 H9          4.2010   -2.3900   -0.2330 ho        1 TMP      0.444000
@<TRIPOS>BOND
     1    1    2 ar  
     2    1    3 ar  
     3    2    6 ar  
     4    2    7 1   
     5    3    4 ar  
     6    3   12 1   
     7    4    5 ar  
     8    4   11 1   
     9    5    6 ar  
    10    5   13 1   
    11    6   14 1   
    12    7   10 2   
    13    8   12 1   
    14    9   13 1   
    15    1   15 1   
    16    7   16 1   
    17    8   17 1   
    18    8   18 1   
    19    8   19 1   
    20    9   20 1   
    21    9   21 1   
    22    9   22 1   
    23   11   23 1   
@<TRIPOS>SUBSTRUCTURE
     1 TMP         1 TEMP              0 ****  ****    0 ROOT
