@<TRIPOS>MOLECULE
2,3-dichlorodibenzo-p-dioxin
   22    24     1     0     0
SMALL
No Charge or Current Charge


@<TRIPOS>ATOM
      1 C1         -1.8580    0.7400    0.8000 ca        1 <0>     -0.124600
      2 C2         -1.0040   -0.2570    0.3260 ca        1 <0>     -0.124500
      3 C3         -3.1490    0.4150    1.2200 ca        1 <0>     -0.113700
      4 C4         -1.4370   -1.5820    0.2690 ca        1 <0>     -0.113800
      5 C5         -6.5290   -2.8210    1.9320 ca        1 <0>     -0.109700
      6 C6         -4.8170   -4.8180    0.9820 ca        1 <0>     -0.109700
      7 C7         -3.5800   -0.9100    1.1630 ca        1 <0>      0.060700
      8 C8         -2.7270   -1.9050    0.6890 ca        1 <0>      0.060500
      9 C9         -5.2390   -2.4980    1.5120 ca        1 <0>      0.073600
     10 C10        -4.3860   -3.4940    1.0380 ca        1 <0>      0.073900
     11 C11        -6.9620   -4.1460    1.8750 ca        1 <0>      0.018500
     12 C12        -6.1070   -5.1430    1.4010 ca        1 <0>      0.017500
     13 O1         -4.8560   -1.1830    1.5850 os        1 <0>     -0.219200
     14 O2         -3.1090   -3.2200    0.6160 os        1 <0>     -0.218900
     15 Cl1        -8.5700   -4.4910    2.4080 cl        1 <0>     -0.057400
     16 Cl2        -6.5900   -6.8010    1.3090 cl        1 <0>     -0.056300
     17 H1         -1.5180    1.7700    0.8420 ha        1 <0>      0.142100
     18 H2         -0.0000   -0.0000   -0.0000 ha        1 <0>      0.142300
     19 H3         -3.8080    1.1960    1.5870 ha        1 <0>      0.156300
     20 H4         -0.7660   -2.3520   -0.1010 ha        1 <0>      0.156200
     21 H5         -7.1870   -2.0380    2.3000 ha        1 <0>      0.173300
     22 H6         -4.1430   -5.5870    0.6100 ha        1 <0>      0.173100
@<TRIPOS>BOND
     1    1    2 ar  
     2    1    3 ar  
     3    2    4 ar  
     4    3    7 ar  
     5    4    8 ar  
     6    5    9 ar  
     7    5   11 ar  
     8    6   10 ar  
     9    6   12 ar  
    10    7    8 ar  
    11    7   13 ar  
    12    8   14 ar  
    13    9   10 ar  
    14    9   13 ar  
    15   10   14 ar  
    16   11   12 ar  
    17   11   15 1   
    18   12   16 1   
    19    1   17 1   
    20    2   18 1   
    21    3   19 1   
    22    4   20 1   
    23    5   21 1   
    24    6   22 1   
@<TRIPOS>SUBSTRUCTURE
     1 <0>         1 TEMP              0 ****  ****    0 ROOT
