@<TRIPOS>MOLECULE
3_methyl_1h_indole
   19    20     1     0     0
SMALL
No Charge or Current Charge


@<TRIPOS>ATOM
      1 C1         -1.0570    0.9300    1.6240 ca        1 R0_     -0.160200
      2 C2         -0.8010   -0.1060    0.7270 ca        1 R0_     -0.112500
      3 C3         -2.0820    0.8210    2.5710 ca        1 R0_     -0.080900
      4 C4         -1.5580   -1.2810    0.7480 ca        1 R0_     -0.147600
      5 C5         -4.3010   -2.0550    2.9820 cc        1 R0_     -0.110000
      6 C6         -2.8590   -0.3540    2.6100 ca        1 R0_     -0.091300
      7 C7         -3.9470   -0.7970    3.4130 cd        1 R0_     -0.136000
      8 C8         -2.5800   -1.3760    1.7000 ca        1 R0_     -0.044600
      9 C9         -4.5900   -0.0500    4.5130 c3        1 R0_     -0.018800
     10 N1         -3.4710   -2.3950    1.9490 na        1 R0_     -0.193200
     11 H1         -0.4550    1.8340    1.5880 ha        1 R0_      0.128200
     12 H2         -0.0010    0.0000   -0.0010 ha        1 R0_      0.127900
     13 H3         -2.2700    1.6370    3.2620 ha        1 R0_      0.132900
     14 H4         -1.3590   -2.0860    0.0490 ha        1 R0_      0.130400
     15 H5         -5.0690   -2.7380    3.3170 h4        1 R0_      0.163800
     16 H6         -4.1060   -0.2780    5.4740 hc        1 R0_      0.038500
     17 H7         -4.5350    1.0390    4.3670 hc        1 R0_      0.038500
     18 H8         -5.6560   -0.3020    4.6070 hc        1 R0_      0.038500
     19 H9         -3.5060   -3.2680    1.4410 hn        1 R0_      0.296500
@<TRIPOS>BOND
     1    1    2 ar  
     2    1    3 ar  
     3    2    4 ar  
     4    3    6 ar  
     5    4    8 ar  
     6    5    7 2   
     7    5   10 1   
     8    6    7 1   
     9    6    8 ar  
    10    7    9 1   
    11    8   10 1   
    12    1   11 1   
    13    2   12 1   
    14    3   13 1   
    15    4   14 1   
    16    5   15 1   
    17    9   16 1   
    18    9   17 1   
    19    9   18 1   
    20   10   19 1   
@<TRIPOS>SUBSTRUCTURE
     1 R0_         1 TEMP              0 ****  ****    0 ROOT
