@<TRIPOS>MOLECULE
methyl_cyclohexanecarboxylate
   24    24     1     0     0
SMALL
No Charge or Current Charge


@<TRIPOS>ATOM
      1 C1          0.7300   -0.4750   -0.6710 c         1 R0_      0.629600
      2 C2          2.9490   -3.1870   -2.0640 c3        1 R0_     -0.076900
      3 C3          2.3700   -2.0530   -2.9020 c3        1 R0_     -0.075400
      4 C4          2.5980   -3.0260   -0.5900 c3        1 R0_     -0.075400
      5 C5          0.8600   -1.9150   -2.7090 c3        1 R0_     -0.070400
      6 C6          1.0890   -2.9170   -0.3780 c3        1 R0_     -0.070400
      7 C7          0.4390   -1.8330   -1.2410 c3        1 R0_     -0.101400
      8 C8          0.5060    0.8280    1.2880 c3        1 R0_      0.128800
      9 O1          1.2790    0.4250   -1.2910 o         1 R0_     -0.539800
     10 O2          0.2900   -0.4190    0.6190 os        1 R0_     -0.442700
     11 H1          2.5630   -4.1470   -2.4310 hc        1 R0_      0.041000
     12 H2          4.0380   -3.2140   -2.1830 hc        1 R0_      0.041000
     13 H3          2.8610   -1.1110   -2.6280 hc        1 R0_      0.043500
     14 H4          2.5900   -2.2280   -3.9620 hc        1 R0_      0.043500
     15 H5          2.9860   -3.8810   -0.0240 hc        1 R0_      0.043500
     16 H6          3.0920   -2.1320   -0.1920 hc        1 R0_      0.043500
     17 H7          0.5080   -1.0320   -3.2570 hc        1 R0_      0.052700
     18 H8          0.3710   -2.7850   -3.1650 hc        1 R0_      0.052700
     19 H9          0.6300   -3.8840   -0.6220 hc        1 R0_      0.052700
     20 H10         0.8880   -2.7320    0.6850 hc        1 R0_      0.052700
     21 H11        -0.6510   -1.9420   -1.1810 hc        1 R0_      0.079800
     22 H12         1.4170    1.2950    0.9050 h1        1 R0_      0.049000
     23 H13         0.5970    0.6550    2.3630 h1        1 R0_      0.049000
     24 H14        -0.3450    1.4860    1.0970 h1        1 R0_      0.049000
@<TRIPOS>BOND
     1    1    7 1   
     2    1    9 2   
     3    1   10 1   
     4    2    3 1   
     5    2    4 1   
     6    3    5 1   
     7    4    6 1   
     8    5    7 1   
     9    6    7 1   
    10    8   10 1   
    11    2   11 1   
    12    2   12 1   
    13    3   13 1   
    14    3   14 1   
    15    4   15 1   
    16    4   16 1   
    17    5   17 1   
    18    5   18 1   
    19    6   19 1   
    20    6   20 1   
    21    7   21 1   
    22    8   22 1   
    23    8   23 1   
    24    8   24 1   
@<TRIPOS>SUBSTRUCTURE
     1 R0_         1 TEMP              0 ****  ****    0 ROOT
