@<TRIPOS>MOLECULE
isobutylbenzene
   24    24     1     0     0
SMALL
No Charge or Current Charge


@<TRIPOS>ATOM
      1 C1         -2.3830    3.1740   -2.0960 ca        1 R0_     -0.133500
      2 C2         -1.0120    2.9510   -1.9810 ca        1 R0_     -0.129100
      3 C3         -3.2040    3.0680   -0.9730 ca        1 R0_     -0.129100
      4 C4         -0.4600    2.6210   -0.7430 ca        1 R0_     -0.128000
      5 C5         -2.6520    2.7390    0.2660 ca        1 R0_     -0.128000
      6 C6         -1.2870    2.5200    0.3650 ca        1 R0_     -0.063700
      7 C7         -2.0270    0.0020    1.8760 c3        1 R0_     -0.088400
      8 C8          0.3170   -0.0300    1.0010 c3        1 R0_     -0.088400
      9 C9         -0.6900    2.1630    1.7040 c3        1 R0_     -0.040900
     10 C10        -0.6430    0.6470    1.9820 c3        1 R0_     -0.059900
     11 H1         -2.8130    3.4310   -3.0600 ha        1 R0_      0.129800
     12 H2         -0.3730    3.0330   -2.8560 ha        1 R0_      0.129600
     13 H3         -4.2720    3.2430   -1.0620 ha        1 R0_      0.129600
     14 H4          0.6100    2.4490   -0.6630 ha        1 R0_      0.130800
     15 H5         -3.2990    2.6590    1.1350 ha        1 R0_      0.130800
     16 H6         -2.4720    0.1740    0.8900 hc        1 R0_      0.034300
     17 H7         -2.7110    0.3990    2.6330 hc        1 R0_      0.034300
     18 H8         -1.9630   -1.0810    2.0310 hc        1 R0_      0.034300
     19 H9          0.3860   -1.1040    1.2020 hc        1 R0_      0.034300
     20 H10        -0.0150    0.1010   -0.0350 hc        1 R0_      0.034300
     21 H11         1.3250    0.3910    1.0900 hc        1 R0_      0.034300
     22 H12         0.3180    2.5890    1.7890 hc        1 R0_      0.045800
     23 H13        -1.2870    2.6640    2.4780 hc        1 R0_      0.045800
     24 H14        -0.2630    0.4720    2.9960 hc        1 R0_      0.041300
@<TRIPOS>BOND
     1    1    2 ar  
     2    1    3 ar  
     3    2    4 ar  
     4    3    5 ar  
     5    4    6 ar  
     6    5    6 ar  
     7    6    9 1   
     8    7   10 1   
     9    8   10 1   
    10    9   10 1   
    11    1   11 1   
    12    2   12 1   
    13    3   13 1   
    14    4   14 1   
    15    5   15 1   
    16    7   16 1   
    17    7   17 1   
    18    7   18 1   
    19    8   19 1   
    20    8   20 1   
    21    8   21 1   
    22    9   22 1   
    23    9   23 1   
    24   10   24 1   
@<TRIPOS>SUBSTRUCTURE
     1 R0_         1 TEMP              0 ****  ****    0 ROOT
