@<TRIPOS>MOLECULE
SAMPL4_003
   29    28     1     0     0
SMALL
bcc


@<TRIPOS>ATOM
      1 C1          0.2860   -2.1830   -2.1030 c2        1 TMP     -0.177200
      2 C2          1.8230   -1.8180    1.2680 c2        1 TMP     -0.174200
      3 C3          0.3850   -1.0690   -2.8520 c2        1 TMP     -0.124400
      4 C4          0.5260   -1.7580    0.9080 c2        1 TMP     -0.114400
      5 C5          1.5510   -0.8830   -3.7870 c3        1 TMP     -0.058400
      6 C6         -0.5890    0.0740   -2.8430 c3        1 TMP     -0.058400
      7 C7         -0.2730   -0.5070    1.1720 c3        1 TMP     -0.058900
      8 C8         -0.7970   -2.5520   -1.1270 c3        1 TMP     -0.040200
      9 C9          2.7790   -2.9530    1.0820 c3        1 TMP      0.164600
     10 C10        -0.2460   -2.8910    0.2650 c3        1 TMP     -0.042200
     11 O1          3.2800   -3.3370    2.3550 oh        1 TMP     -0.600800
     12 H1          1.0700   -2.9340   -2.1970 ha        1 TMP      0.127000
     13 H2          2.2640   -0.9380    1.7350 ha        1 TMP      0.144000
     14 H3          1.3150   -1.2950   -4.7730 hc        1 TMP      0.040367
     15 H4          1.8140    0.1710   -3.9220 hc        1 TMP      0.040367
     16 H5          2.4350   -1.3980   -3.3970 hc        1 TMP      0.040367
     17 H6         -0.2910    0.8150   -2.0930 hc        1 TMP      0.040367
     18 H7         -0.6690    0.5900   -3.8010 hc        1 TMP      0.040367
     19 H8         -1.5910   -0.2890   -2.5890 hc        1 TMP      0.040367
     20 H9         -0.2010    0.1750    0.3180 hc        1 TMP      0.042700
     21 H10         0.1010    0.0090    2.0610 hc        1 TMP      0.042700
     22 H11        -1.3350   -0.7180    1.3370 hc        1 TMP      0.042700
     23 H12        -1.5730   -1.7850   -1.0560 hc        1 TMP      0.047700
     24 H13        -1.3040   -3.4410   -1.5230 hc        1 TMP      0.047700
     25 H14         3.6200   -2.6220    0.4640 h1        1 TMP      0.029700
     26 H15         2.3340   -3.8300    0.6080 h1        1 TMP      0.029700
     27 H16        -1.0890   -3.1490    0.9200 hc        1 TMP      0.045200
     28 H17         0.3540   -3.8060    0.2140 hc        1 TMP      0.045200
     29 H18         3.8950   -4.0730    2.2040 ho        1 TMP      0.400000
@<TRIPOS>BOND
     1    1    3 2   
     2    1    8 1   
     3    2    4 2   
     4    2    9 1   
     5    3    5 1   
     6    3    6 1   
     7    4    7 1   
     8    4   10 1   
     9    8   10 1   
    10    9   11 1   
    11    1   12 1   
    12    2   13 1   
    13    5   14 1   
    14    5   15 1   
    15    5   16 1   
    16    6   17 1   
    17    6   18 1   
    18    6   19 1   
    19    7   20 1   
    20    7   21 1   
    21    7   22 1   
    22    8   23 1   
    23    8   24 1   
    24    9   25 1   
    25    9   26 1   
    26   10   27 1   
    27   10   28 1   
    28   11   29 1   
@<TRIPOS>SUBSTRUCTURE
     1 TMP         1 TEMP              0 ****  ****    0 ROOT
