@<TRIPOS>MOLECULE
trimethoxy_methane
   17    16     1     0     0
SMALL
No Charge or Current Charge


@<TRIPOS>ATOM
      1 C1         -0.1610   -1.3930   -1.8320 c3        1 R0_      0.129800
      2 C2          1.0960   -0.0530   -4.6790 c3        1 R0_      0.129800
      3 C3         -1.0440    2.6430   -2.2620 c3        1 R0_      0.129800
      4 C4         -0.6860    0.4750   -3.1990 c3        1 R0_      0.509900
      5 O1          0.0230    0.0000   -2.0470 os        1 R0_     -0.443700
      6 O2         -0.2850   -0.2220   -4.3890 os        1 R0_     -0.443700
      7 O3         -0.5680    1.8970   -3.3760 os        1 R0_     -0.443700
      8 H1         -0.2480   -1.5880   -0.7600 h1        1 R0_      0.040200
      9 H2          0.6890   -1.9420   -2.2450 h1        1 R0_      0.040200
     10 H3         -1.0770   -1.7120   -2.3340 h1        1 R0_      0.040200
     11 H4          1.2080    0.5000   -5.6150 h1        1 R0_      0.040200
     12 H5          1.5750   -1.0320   -4.7620 h1        1 R0_      0.040200
     13 H6          1.5630    0.5110   -3.8680 h1        1 R0_      0.040200
     14 H7         -0.8390    3.7040   -2.4190 h1        1 R0_      0.040200
     15 H8         -0.5480    2.2950   -1.3520 h1        1 R0_      0.040200
     16 H9         -2.1220    2.4920   -2.1680 h1        1 R0_      0.040200
     17 H10        -1.7580    0.2870   -3.0580 h3        1 R0_      0.070300
@<TRIPOS>BOND
     1    1    5 1   
     2    2    6 1   
     3    3    7 1   
     4    4    5 1   
     5    4    6 1   
     6    4    7 1   
     7    1    8 1   
     8    1    9 1   
     9    1   10 1   
    10    2   11 1   
    11    2   12 1   
    12    2   13 1   
    13    3   14 1   
    14    3   15 1   
    15    3   16 1   
    16    4   17 1   
@<TRIPOS>SUBSTRUCTURE
     1 R0_         1 TEMP              0 ****  ****    0 ROOT
