@<TRIPOS>MOLECULE
22_dimethylpentane
   23    22     1     0     0
SMALL
No Charge or Current Charge


@<TRIPOS>ATOM
      1 C1          0.1160   -0.6030    0.9140 c3        1 R0_     -0.089800
      2 C2          4.2860   -1.3370    2.5310 c3        1 R0_     -0.083000
      3 C3          3.1820    0.3310    4.0430 c3        1 R0_     -0.083000
      4 C4          3.1490   -2.1000    4.6200 c3        1 R0_     -0.083000
      5 C5          1.4840   -0.3500    1.5310 c3        1 R0_     -0.075700
      6 C6          1.7430   -1.2970    2.7080 c3        1 R0_     -0.067100
      7 C7          3.0860   -1.0880    3.4590 c3        1 R0_     -0.053800
      8 H1         -0.6810   -0.4430    1.6470 hc        1 R0_      0.031200
      9 H2         -0.0530    0.0800    0.0750 hc        1 R0_      0.031200
     10 H3          0.0380   -1.6280    0.5380 hc        1 R0_      0.031200
     11 H4          4.2220   -2.3220    2.0570 hc        1 R0_      0.032600
     12 H5          4.3490   -0.5840    1.7380 hc        1 R0_      0.032600
     13 H6          5.2290   -1.2970    3.0880 hc        1 R0_      0.032600
     14 H7          4.0810    0.4410    4.6610 hc        1 R0_      0.032600
     15 H8          2.3160    0.5580    4.6740 hc        1 R0_      0.032600
     16 H9          3.2370    1.0910    3.2570 hc        1 R0_      0.032600
     17 H10         3.0980   -3.1300    4.2510 hc        1 R0_      0.032600
     18 H11         4.0800   -1.9960    5.1880 hc        1 R0_      0.032600
     19 H12         2.3170   -1.9540    5.3180 hc        1 R0_      0.032600
     20 H13         2.2450   -0.4850    0.7560 hc        1 R0_      0.037800
     21 H14         1.5290    0.6930    1.8610 hc        1 R0_      0.037800
     22 H15         1.7000   -2.3300    2.3390 hc        1 R0_      0.036600
     23 H16         0.9160   -1.1950    3.4250 hc        1 R0_      0.036600
@<TRIPOS>BOND
     1    1    5 1   
     2    2    7 1   
     3    3    7 1   
     4    4    7 1   
     5    5    6 1   
     6    6    7 1   
     7    1    8 1   
     8    1    9 1   
     9    1   10 1   
    10    2   11 1   
    11    2   12 1   
    12    2   13 1   
    13    3   14 1   
    14    3   15 1   
    15    3   16 1   
    16    4   17 1   
    17    4   18 1   
    18    4   19 1   
    19    5   20 1   
    20    5   21 1   
    21    6   22 1   
    22    6   23 1   
@<TRIPOS>SUBSTRUCTURE
     1 R0_         1 TEMP              0 ****  ****    0 ROOT
