@<TRIPOS>MOLECULE
ZINC01698513
   17    16     0     0     0
SMALL
NO_CHARGES

@<TRIPOS>ATOM
      1 C1         -5.0441   -7.2754   -3.2751 C.3       1 <0>         0.0000
      2 C2         -5.2056   -6.2520   -2.1624 C.3       1 <0>         0.0000
      3 C3         -3.8950   -6.0351   -1.4064 C.3       1 <0>         0.0000
      4 C4         -4.0617   -5.0058   -0.2889 C.3       1 <0>         0.0000
      5 C5         -2.7601   -4.7870    0.4658 C.3       1 <0>         0.0000
      6 H1         -5.9931   -7.4149   -3.8024 H         1 <0>         0.0000
      7 H2         -4.2956   -6.9480   -4.0037 H         1 <0>         0.0000
      8 H3         -4.7326   -8.2452   -2.8741 H         1 <0>         0.0000
      9 H4         -5.5486   -5.3040   -2.5929 H         1 <0>         0.0000
     10 H5         -5.9832   -6.5940   -1.4695 H         1 <0>         0.0000
     11 H6         -3.5540   -6.9871   -0.9814 H         1 <0>         0.0000
     12 H7         -3.1195   -5.6973   -2.1046 H         1 <0>         0.0000
     13 H8         -4.3984   -4.0509   -0.7091 H         1 <0>         0.0000
     14 H9         -4.8330   -5.3409    0.4143 H         1 <0>         0.0000
     15 H10        -2.9022   -4.0475    1.2600 H         1 <0>         0.0000
     16 H11        -2.4124   -5.7174    0.9261 H         1 <0>         0.0000
     17 H12        -1.9754   -4.4202   -0.2035 H         1 <0>         0.0000
@<TRIPOS>BOND
     1    1    2 1
     2    1    6 1
     3    1    7 1
     4    1    8 1
     5    2    3 1
     6    2    9 1
     7    2   10 1
     8    3    4 1
     9    3   11 1
    10    3   12 1
    11    4    5 1
    12    4   13 1
    13    4   14 1
    14    5   15 1
    15    5   16 1
    16    5   17 1
