@<TRIPOS>MOLECULE
decan_1_ol
   33    32     1     0     0
SMALL
No Charge or Current Charge


@<TRIPOS>ATOM
      1 C1         -2.9630    2.3590    0.3760 c3        1 R0_     -0.089600
      2 C2         -3.3900    2.1890   -1.0730 c3        1 R0_     -0.077700
      3 C3         -3.3850    0.7180   -1.4890 c3        1 R0_     -0.076800
      4 C4         -3.8480    0.5480   -2.9380 c3        1 R0_     -0.076500
      5 C5         -3.8780   -0.9290   -3.3390 c3        1 R0_     -0.076100
      6 C6         -4.4030   -1.1640   -4.7580 c3        1 R0_     -0.076800
      7 C7         -4.5030   -2.6440   -5.1330 c3        1 R0_     -0.076100
      8 C8         -5.0040   -2.8200   -6.5690 c3        1 R0_     -0.075900
      9 C9         -5.1330   -4.3010   -6.9350 c3        1 R0_     -0.079000
     10 C10        -5.6610   -4.5000   -8.3510 c3        1 R0_      0.134000
     11 O1         -5.7440   -5.8870   -8.6460 oh        1 R0_     -0.603400
     12 H1         -1.9490    1.9780    0.5330 hc        1 R0_      0.031400
     13 H2         -3.6400    1.8250    1.0500 hc        1 R0_      0.031400
     14 H3         -2.9740    3.4180    0.6530 hc        1 R0_      0.031400
     15 H4         -4.3940    2.6090   -1.2040 hc        1 R0_      0.036800
     16 H5         -2.7120    2.7610   -1.7170 hc        1 R0_      0.036800
     17 H6         -2.3740    0.3070   -1.3760 hc        1 R0_      0.038200
     18 H7         -4.0430    0.1470   -0.8230 hc        1 R0_      0.038200
     19 H8         -3.1710    1.1030   -3.5970 hc        1 R0_      0.038300
     20 H9         -4.8480    0.9820   -3.0570 hc        1 R0_      0.038300
     21 H10        -2.8740   -1.3600   -3.2420 hc        1 R0_      0.037800
     22 H11        -4.5250   -1.4760   -2.6420 hc        1 R0_      0.037800
     23 H12        -3.7620   -0.6420   -5.4790 hc        1 R0_      0.039100
     24 H13        -5.3980   -0.7080   -4.8330 hc        1 R0_      0.039100
     25 H14        -5.1870   -3.1530   -4.4420 hc        1 R0_      0.038300
     26 H15        -3.5230   -3.1240   -5.0340 hc        1 R0_      0.038300
     27 H16        -4.3080   -2.3300   -7.2610 hc        1 R0_      0.042500
     28 H17        -5.9740   -2.3220   -6.6800 hc        1 R0_      0.042500
     29 H18        -4.1560   -4.7900   -6.8460 hc        1 R0_      0.050900
     30 H19        -5.8140   -4.7840   -6.2230 hc        1 R0_      0.050900
     31 H20        -4.9830   -4.0350   -9.0720 h1        1 R0_      0.018700
     32 H21        -6.6550   -4.0550   -8.4650 h1        1 R0_      0.018700
     33 H22        -6.5210   -6.0070   -9.2160 ho        1 R0_      0.398500
@<TRIPOS>BOND
     1    1    2 1   
     2    2    3 1   
     3    3    4 1   
     4    4    5 1   
     5    5    6 1   
     6    6    7 1   
     7    7    8 1   
     8    8    9 1   
     9    9   10 1   
    10   10   11 1   
    11    1   12 1   
    12    1   13 1   
    13    1   14 1   
    14    2   15 1   
    15    2   16 1   
    16    3   17 1   
    17    3   18 1   
    18    4   19 1   
    19    4   20 1   
    20    5   21 1   
    21    5   22 1   
    22    6   23 1   
    23    6   24 1   
    24    7   25 1   
    25    7   26 1   
    26    8   27 1   
    27    8   28 1   
    28    9   29 1   
    29    9   30 1   
    30   10   31 1   
    31   10   32 1   
    32   11   33 1   
@<TRIPOS>SUBSTRUCTURE
     1 R0_         1 TEMP              0 ****  ****    0 ROOT
