@<TRIPOS>MOLECULE
ch3ph.xyz
   25    25     1     0     0
SMALL
No Charge or Current Charge


@<TRIPOS>ATOM
      1 C1          1.3380    2.4160    0.0230 ca        1 <0>     -0.094400
      2 C2         -0.7130    1.1850    0.0000 ca        1 <0>     -0.080000
      3 C3          2.0490    1.2260    0.0000 ca        1 <0>     -0.139100
      4 C4          0.0000    0.0000    0.0000 ca        1 <0>     -0.137900
      5 C5         -0.0500    2.4080    0.0310 ca        1 <0>     -0.152500
      6 C6          1.3930    0.0000    0.0000 ca        1 <0>     -0.058000
      7 C7         -0.8690    3.6660   -0.0460 c         1 <0>      0.682300
      8 C8          2.1630   -1.2990    0.0100 c3        1 <0>     -0.048800
      9 C9         -1.2170    5.9810    0.4870 c3        1 <0>      0.078600
     10 C10         0.1890    4.6530    1.9780 c3        1 <0>      0.090700
     11 N1         -0.4890    4.7430    0.6970 n         1 <0>     -0.480600
     12 O1         -1.8130    3.7150   -0.7950 o         1 <0>     -0.580900
     13 H1          1.8710    3.3500    0.0140 ha        1 <0>      0.136100
     14 H2         -1.7870    1.1720   -0.0350 ha        1 <0>      0.145600
     15 H3          3.1250    1.2560   -0.0230 ha        1 <0>      0.131100
     16 H4         -0.5320   -0.9360   -0.0150 ha        1 <0>      0.132600
     17 H5          3.1890   -1.1500   -0.3060 hc        1 <0>      0.041700
     18 H6          2.1820   -1.7280    1.0090 hc        1 <0>      0.046300
     19 H7          1.7090   -2.0280   -0.6520 hc        1 <0>      0.045200
     20 H8         -1.4600    6.0940   -0.5570 h1        1 <0>      0.063900
     21 H9         -2.1420    6.0050    1.0600 h1        1 <0>      0.025500
     22 H10        -0.5910    6.8080    0.8020 h1        1 <0>      0.035900
     23 H11         0.5210    3.6480    2.1780 h1        1 <0>      0.052900
     24 H12        -0.4880    4.9490    2.7760 h1        1 <0>      0.026500
     25 H13         1.0490    5.3150    2.0000 h1        1 <0>      0.037300
@<TRIPOS>BOND
     1    1    3 ar  
     2    1    5 ar  
     3    2    4 ar  
     4    2    5 ar  
     5    3    6 ar  
     6    4    6 ar  
     7    5    7 1   
     8    6    8 1   
     9    7   11 1   
    10    7   12 2   
    11    9   11 1   
    12   10   11 1   
    13    1   13 1   
    14    2   14 1   
    15    3   15 1   
    16    4   16 1   
    17    8   17 1   
    18    8   18 1   
    19    8   19 1   
    20    9   20 1   
    21    9   21 1   
    22    9   22 1   
    23   10   23 1   
    24   10   24 1   
    25   10   25 1   
@<TRIPOS>SUBSTRUCTURE
     1 <0>         1 TEMP              0 ****  ****    0 ROOT
