@<TRIPOS>MOLECULE
1_chloro_222_trifluoroethane
    8     7     1     0     0
SMALL
No Charge or Current Charge


@<TRIPOS>ATOM
      1 C1          0.8500   -0.1970    0.6590 c3        1 R0_     -0.027200
      2 C2          0.8960   -1.6530    1.0500 c3        1 R0_      0.642600
      3 F1          1.9330   -1.9120    1.8740 f         1 R0_     -0.235300
      4 F2          1.0070   -2.4540   -0.0310 f         1 R0_     -0.235300
      5 F3         -0.2370   -2.0010    1.7000 f         1 R0_     -0.235300
      6 Cl1         0.6800    0.8380    2.0930 cl        1 R0_     -0.114000
      7 H1          1.7680    0.0950    0.1410 h1        1 R0_      0.102300
      8 H2          0.0000    0.0000   -0.0000 h1        1 R0_      0.102300
@<TRIPOS>BOND
     1    1    2 1   
     2    1    6 1   
     3    2    3 1   
     4    2    4 1   
     5    2    5 1   
     6    1    7 1   
     7    1    8 1   
@<TRIPOS>SUBSTRUCTURE
     1 R0_         1 TEMP              0 ****  ****    0 ROOT
