@<TRIPOS>MOLECULE
1,4-dichloro-2-phenyl-benzene
   22    23     1     0     0
SMALL
No Charge or Current Charge


@<TRIPOS>ATOM
      1 C1          1.8850   -1.0360   -0.1120 ca        1 <0>     -0.122700
      2 C2          0.8070   -0.4630    0.5610 ca        1 <0>     -0.131700
      3 C3          2.9210   -1.6310    0.6080 ca        1 <0>     -0.130900
      4 C4          0.7640   -0.4840    1.9550 ca        1 <0>     -0.105800
      5 C5          2.8780   -1.6520    2.0020 ca        1 <0>     -0.106000
      6 C6          1.6260   -1.2200    6.9060 ca        1 <0>     -0.115900
      7 C7          2.2400   -0.1340    6.2820 ca        1 <0>     -0.119800
      8 C8          1.1410   -2.1870    4.7450 ca        1 <0>     -0.105900
      9 C9          1.8000   -1.0790    2.6760 cp        1 <0>     -0.053600
     10 C10         1.7550   -1.1010    4.1220 cp        1 <0>     -0.025300
     11 C11         1.0770   -2.2470    6.1370 ca        1 <0>      0.013400
     12 C12         2.3040   -0.0740    4.8900 ca        1 <0>      0.027700
     13 Cl1         0.3170   -3.5850    6.9080 cl        1 <0>     -0.086500
     14 Cl2         3.0780    1.2960    4.1710 cl        1 <0>     -0.077800
     15 H1          1.9170   -1.0210   -1.1980 ha        1 <0>      0.131700
     16 H2         -0.0010   -0.0020    0.0000 ha        1 <0>      0.133700
     17 H3          3.7600   -2.0790    0.0840 ha        1 <0>      0.134600
     18 H4         -0.0840   -0.0330    2.4660 ha        1 <0>      0.139300
     19 H5          3.6930   -2.1200    2.5500 ha        1 <0>      0.138900
     20 H6          1.5820   -1.2530    7.9920 ha        1 <0>      0.152000
     21 H7          2.6630    0.6560    6.8960 ha        1 <0>      0.152600
     22 H8          0.7100   -2.9890    4.1490 ha        1 <0>      0.158300
@<TRIPOS>BOND
     1    1    2 ar  
     2    1    3 ar  
     3    2    4 ar  
     4    3    5 ar  
     5    4    9 ar  
     6    5    9 ar  
     7    6    7 ar  
     8    6   11 ar  
     9    7   12 ar  
    10    8   10 ar  
    11    8   11 ar  
    12    9   10 1   
    13   10   12 ar  
    14   11   13 1   
    15   12   14 1   
    16    1   15 1   
    17    2   16 1   
    18    3   17 1   
    19    4   18 1   
    20    5   19 1   
    21    6   20 1   
    22    7   21 1   
    23    8   22 1   
@<TRIPOS>SUBSTRUCTURE
     1 <0>         1 TEMP              0 ****  ****    0 ROOT
