@<TRIPOS>MOLECULE
piperazine
   16    16     1     0     0
SMALL
No Charge or Current Charge


@<TRIPOS>ATOM
      1 C1          1.0040   -0.2220    0.3780 c3        1 R0_      0.128700
      2 C2          1.0010   -1.5990    1.0420 c3        1 R0_      0.128700
      3 C3          2.6910    0.5170    1.9300 c3        1 R0_      0.128700
      4 C4          2.6830   -0.8620    2.5900 c3        1 R0_      0.128700
      5 N1          1.3940    0.8220    1.3270 n3        1 R0_     -0.799400
      6 N2          2.3000   -1.9120    1.6420 n3        1 R0_     -0.799400
      7 H1          1.6830   -0.2170   -0.4840 h1        1 R0_      0.046300
      8 H2          0.0000   -0.0000   -0.0000 h1        1 R0_      0.046300
      9 H3          0.2140   -1.6500    1.8060 h1        1 R0_      0.046300
     10 H4          0.7660   -2.3610    0.2900 h1        1 R0_      0.046300
     11 H5          2.9210    1.2770    2.6850 h1        1 R0_      0.046300
     12 H6          3.4800    0.5700    1.1690 h1        1 R0_      0.046300
     13 H7          3.6850   -1.0840    2.9750 h1        1 R0_      0.046300
     14 H8          2.0010   -0.8680    3.4490 h1        1 R0_      0.046300
     15 H9          1.4440    1.7190    0.8470 hn        1 R0_      0.356800
     16 H10         2.2420   -2.8060    2.1290 hn        1 R0_      0.356800
@<TRIPOS>BOND
     1    1    2 1   
     2    1    5 1   
     3    2    6 1   
     4    3    4 1   
     5    3    5 1   
     6    4    6 1   
     7    1    7 1   
     8    1    8 1   
     9    2    9 1   
    10    2   10 1   
    11    3   11 1   
    12    3   12 1   
    13    4   13 1   
    14    4   14 1   
    15    5   15 1   
    16    6   16 1   
@<TRIPOS>SUBSTRUCTURE
     1 R0_         1 TEMP              0 ****  ****    0 ROOT
