@<TRIPOS>MOLECULE
2_chlorobutane
   14    13     1     0     0
SMALL
No Charge or Current Charge


@<TRIPOS>ATOM
      1 C1         -1.7010   -2.1100   -1.3390 c3        1 R0_     -0.093100
      2 C2         -0.9780    1.2310   -3.2090 c3        1 R0_     -0.100800
      3 C3         -1.0180   -1.1040   -2.2560 c3        1 R0_     -0.085000
      4 C4         -1.7160    0.2610   -2.2930 c3        1 R0_      0.063900
      5 Cl1        -1.8140    0.9740   -0.6550 cl        1 R0_     -0.212300
      6 H1         -1.1120   -3.0310   -1.2900 hc        1 R0_      0.038100
      7 H2         -2.6990   -2.3740   -1.6980 hc        1 R0_      0.038100
      8 H3         -1.7920   -1.7130   -0.3220 hc        1 R0_      0.038100
      9 H4         -0.9910    0.8790   -4.2460 hc        1 R0_      0.047500
     10 H5         -1.4540    2.2170   -3.1890 hc        1 R0_      0.047500
     11 H6          0.0670    1.3550   -2.9050 hc        1 R0_      0.047500
     12 H7         -0.9500   -1.5260   -3.2670 hc        1 R0_      0.051500
     13 H8          0.0120   -0.9690   -1.9040 hc        1 R0_      0.051500
     14 H9         -2.7450    0.1440   -2.6490 h1        1 R0_      0.067600
@<TRIPOS>BOND
     1    1    3 1   
     2    2    4 1   
     3    3    4 1   
     4    4    5 1   
     5    1    6 1   
     6    1    7 1   
     7    1    8 1   
     8    2    9 1   
     9    2   10 1   
    10    2   11 1   
    11    3   12 1   
    12    3   13 1   
    13    4   14 1   
@<TRIPOS>SUBSTRUCTURE
     1 R0_         1 TEMP              0 ****  ****    0 ROOT
