@<TRIPOS>MOLECULE
23_dimethylphenol
   19    19     1     0     0
SMALL
No Charge or Current Charge


@<TRIPOS>ATOM
      1 C1          0.8160   -0.4440    0.5630 ca        1 R0_     -0.093800
      2 C2          1.8850   -1.0360   -0.1090 ca        1 R0_     -0.161300
      3 C3          0.7940   -0.4210    1.9570 ca        1 R0_     -0.214800
      4 C4          2.9330   -1.6060    0.6140 ca        1 R0_     -0.038300
      5 C5          2.9120   -1.5840    2.0090 ca        1 R0_     -0.090700
      6 C6          1.8420   -0.9910    2.6800 ca        1 R0_      0.125900
      7 C7          4.0660   -2.2350   -0.1290 c3        1 R0_     -0.061600
      8 C8          4.0320   -2.1930    2.7890 c3        1 R0_     -0.052200
      9 O1          1.8040   -0.9590    4.0420 oh        1 R0_     -0.501900
     10 H1         -0.0000    0.0000   -0.0000 ha        1 R0_      0.131600
     11 H2          1.8930   -1.0490   -1.1960 ha        1 R0_      0.132400
     12 H3         -0.0410    0.0430    2.4740 ha        1 R0_      0.131600
     13 H4          4.8420   -2.5660    0.5710 hc        1 R0_      0.044900
     14 H5          3.7270   -3.1000   -0.7110 hc        1 R0_      0.044900
     15 H6          4.5140   -1.5290   -0.8390 hc        1 R0_      0.044900
     16 H7          4.5390   -1.4270    3.3850 hc        1 R0_      0.046700
     17 H8          3.6640   -2.9760    3.4630 hc        1 R0_      0.046700
     18 H9          4.7670   -2.6630    2.1230 hc        1 R0_      0.046700
     19 H10         1.1490   -0.2940    4.3210 ho        1 R0_      0.418400
@<TRIPOS>BOND
     1    1    2 ar  
     2    1    3 ar  
     3    2    4 ar  
     4    3    6 ar  
     5    4    5 ar  
     6    4    7 1   
     7    5    6 ar  
     8    5    8 1   
     9    6    9 1   
    10    1   10 1   
    11    2   11 1   
    12    3   12 1   
    13    7   13 1   
    14    7   14 1   
    15    7   15 1   
    16    8   16 1   
    17    8   17 1   
    18    8   18 1   
    19    9   19 1   
@<TRIPOS>SUBSTRUCTURE
     1 R0_         1 TEMP              0 ****  ****    0 ROOT
