@<TRIPOS>MOLECULE
2_nitroaniline
   16    16     1     0     0
SMALL
No Charge or Current Charge


@<TRIPOS>ATOM
      1 C1          1.8850   -1.0380   -0.1090 ca        1 R0_     -0.054700
      2 C2          0.8180   -0.4410    0.5630 ca        1 R0_     -0.181800
      3 C3          2.9350   -1.6040    0.6140 ca        1 R0_     -0.208200
      4 C4          0.8010   -0.4100    1.9570 ca        1 R0_     -0.038200
      5 C5          2.9180   -1.5730    2.0080 ca        1 R0_      0.224800
      6 C6          1.8510   -0.9770    2.6800 ca        1 R0_     -0.237300
      7 N1          3.9940   -2.1540    2.7170 nh        1 R0_     -0.837000
      8 N2          1.8090   -0.9310    4.1020 no        1 R0_      0.315500
      9 O1          0.8300   -0.3840    4.6610 o         1 R0_     -0.209600
     10 O2          2.7520   -1.4400    4.7510 o         1 R0_     -0.209600
     11 H1          1.8970   -1.0610   -1.1950 ha        1 R0_      0.141000
     12 H2         -0.0000   -0.0000   -0.0000 ha        1 R0_      0.147000
     13 H3          3.7610   -2.0660    0.0790 ha        1 R0_      0.143400
     14 H4         -0.0380    0.0580    2.4660 ha        1 R0_      0.157100
     15 H5          4.5490   -2.8530    2.2690 hn        1 R0_      0.423800
     16 H6          4.1210   -1.9230    3.6800 hn        1 R0_      0.423800
@<TRIPOS>BOND
     1    1    2 ar  
     2    1    3 ar  
     3    2    4 ar  
     4    3    5 ar  
     5    4    6 ar  
     6    5    6 ar  
     7    5    7 1   
     8    6    8 1   
     9    8    9 1   
    10    8   10 1   
    11    1   11 1   
    12    2   12 1   
    13    3   13 1   
    14    4   14 1   
    15    7   15 1   
    16    7   16 1   
@<TRIPOS>SUBSTRUCTURE
     1 R0_         1 TEMP              0 ****  ****    0 ROOT
