@<TRIPOS>MOLECULE
octafluorocyclobutane
   12    12     1     0     0
SMALL
No Charge or Current Charge


@<TRIPOS>ATOM
      1 C1          0.7740   -0.6330   -0.4490 cy        1 OCT      0.346400
      2 C2          0.7840   -2.0790    0.0880 cy        1 OCT      0.346300
      3 C3          0.3770   -1.2250   -1.8170 cy        1 OCT      0.346400
      4 C4         -0.2080   -2.4240   -1.0430 cy        1 OCT      0.346300
      5 F1         -0.1420    0.1880    0.1150 f         1 OCT     -0.173300
      6 F2          1.9580    0.0160   -0.4120 f         1 OCT     -0.173100
      7 F3          1.9780   -2.7130    0.0250 f         1 OCT     -0.173200
      8 F4          0.3200   -2.2420    1.3460 f         1 OCT     -0.173100
      9 F5         -0.5100   -0.5010   -2.5350 f         1 OCT     -0.173200
     10 F6          1.4070   -1.5160   -2.6440 f         1 OCT     -0.173300
     11 F7         -1.5170   -2.3350   -0.7230 f         1 OCT     -0.173100
     12 F8         -0.0270   -3.6330   -1.6240 f         1 OCT     -0.173200
@<TRIPOS>BOND
     1    1    2 1   
     2    1    3 1   
     3    1    5 1   
     4    1    6 1   
     5    2    4 1   
     6    2    7 1   
     7    2    8 1   
     8    3    4 1   
     9    3    9 1   
    10    3   10 1   
    11    4   11 1   
    12    4   12 1   
@<TRIPOS>SUBSTRUCTURE
     1 OCT         1 TEMP              0 ****  ****    0 ROOT
