@<TRIPOS>MOLECULE
3_nitrotoluene
   17    17     1     0     0
SMALL
No Charge or Current Charge


@<TRIPOS>ATOM
      1 C1          0.8320   -0.3950    0.5750 ca        1 R0_     -0.131800
      2 C2          1.8990   -1.0140   -0.0770 ca        1 R0_     -0.095400
      3 C3          0.8350   -0.2830    1.9660 ca        1 R0_     -0.077700
      4 C4          2.9710   -1.4090    2.0520 ca        1 R0_     -0.076000
      5 C5          2.9680   -1.5200    0.6620 ca        1 R0_     -0.068300
      6 C6          1.9040   -0.7900    2.7040 ca        1 R0_     -0.163500
      7 C7          4.1090   -2.1810   -0.0360 c3        1 R0_     -0.065500
      8 N1          1.9070   -0.6740    4.1190 no        1 R0_      0.310000
      9 O1          0.9380   -0.1120    4.6850 o         1 R0_     -0.205700
     10 O2          2.8780   -1.1370    4.7650 o         1 R0_     -0.205700
     11 H1         -0.0000   -0.0010    0.0000 ha        1 R0_      0.147700
     12 H2          1.8890   -1.0960   -1.1600 ha        1 R0_      0.143600
     13 H3         -0.0030    0.2030    2.4610 ha        1 R0_      0.166500
     14 H4          3.8080   -1.8040    2.6240 ha        1 R0_      0.166500
     15 H5          4.8780   -2.4780    0.6870 hc        1 R0_      0.051700
     16 H6          3.7800   -3.0740   -0.5810 hc        1 R0_      0.051700
     17 H7          4.5670   -1.5090   -0.7740 hc        1 R0_      0.051700
@<TRIPOS>BOND
     1    1    2 ar  
     2    1    3 ar  
     3    2    5 ar  
     4    3    6 ar  
     5    4    5 ar  
     6    4    6 ar  
     7    5    7 1   
     8    6    8 1   
     9    8    9 1   
    10    8   10 1   
    11    1   11 1   
    12    2   12 1   
    13    3   13 1   
    14    4   14 1   
    15    7   15 1   
    16    7   16 1   
    17    7   17 1   
@<TRIPOS>SUBSTRUCTURE
     1 R0_         1 TEMP              0 ****  ****    0 ROOT
