@<TRIPOS>MOLECULE
2_iodopropane
   11    10     1     0     0
SMALL
No Charge or Current Charge


@<TRIPOS>ATOM
      1 C1          0.7310   -0.7060    0.4100 c3        1 R0_     -0.090900
      2 C2          1.2420    0.8460    2.3240 c3        1 R0_     -0.090900
      3 C3          0.8190   -0.5650    1.9260 c3        1 R0_      0.102700
      4 I1          2.2330   -1.9950    2.7090 i         1 R0_     -0.267900
      5 H1          0.4130   -1.7140    0.1230 hc        1 R0_      0.045300
      6 H2          0.0000    0.0000    0.0000 hc        1 R0_      0.045300
      7 H3          1.6940   -0.5080   -0.0740 hc        1 R0_      0.045300
      8 H4          1.2910    0.9540    3.4130 hc        1 R0_      0.045300
      9 H5          0.5230    1.5830    1.9500 hc        1 R0_      0.045300
     10 H6          2.2270    1.1040    1.9180 hc        1 R0_      0.045300
     11 H7         -0.1650   -0.7760    2.3610 h1        1 R0_      0.075400
@<TRIPOS>BOND
     1    1    3 1   
     2    2    3 1   
     3    3    4 1   
     4    1    5 1   
     5    1    6 1   
     6    1    7 1   
     7    2    8 1   
     8    2    9 1   
     9    2   10 1   
    10    3   11 1   
@<TRIPOS>SUBSTRUCTURE
     1 R0_         1 TEMP              0 ****  ****    0 ROOT
