@<TRIPOS>MOLECULE
isoflurane
   12    11     1     0     0
SMALL
No Charge or Current Charge


@<TRIPOS>ATOM
      1 C1         -0.0670   -1.4260    2.2070 c3        1 R0_      0.212000
      2 C2         -2.0900   -0.9930    1.0490 c3        1 R0_      0.602700
      3 C3          0.3610   -2.3450    3.3300 c3        1 R0_      0.633400
      4 O1         -1.2350   -1.9790    1.6030 os        1 R0_     -0.434000
      5 F1         -2.4890   -0.1810    2.0590 f         1 R0_     -0.223600
      6 F2         -3.2020   -1.6010    0.5680 f         1 R0_     -0.223600
      7 F3         -0.5970   -2.4400    4.2790 f         1 R0_     -0.224700
      8 F4          1.4760   -1.8730    3.9320 f         1 R0_     -0.224700
      9 F5          0.6330   -3.5910    2.8860 f         1 R0_     -0.224700
     10 Cl1         1.2370   -1.3110    0.9970 cl        1 R0_     -0.114400
     11 H1         -0.2620   -0.4230    2.6030 h2        1 R0_      0.117900
     12 H2         -1.6120   -0.3930    0.2690 h3        1 R0_      0.103600
@<TRIPOS>BOND
     1    1    3 1   
     2    1    4 1   
     3    1   10 1   
     4    2    4 1   
     5    2    5 1   
     6    2    6 1   
     7    3    7 1   
     8    3    8 1   
     9    3    9 1   
    10    1   11 1   
    11    2   12 1   
@<TRIPOS>SUBSTRUCTURE
     1 R0_         1 TEMP              0 ****  ****    0 ROOT
