@<TRIPOS>MOLECULE
1235_tetrachlorobenzene
   12    12     1     0     0
SMALL
No Charge or Current Charge


@<TRIPOS>ATOM
      1 C1          0.8180   -0.4390    0.5640 ca        1 R0_     -0.115600
      2 C2          2.9370   -1.5970    0.6200 ca        1 R0_     -0.115600
      3 C3          1.8870   -1.0340   -0.1050 ca        1 R0_      0.029600
      4 C4          0.7990   -0.4060    1.9590 ca        1 R0_      0.030800
      5 C5          2.9180   -1.5650    2.0140 ca        1 R0_      0.030800
      6 C6          1.8500   -0.9690    2.6840 ca        1 R0_      0.014100
      7 Cl1         1.9090   -1.0760   -1.8260 cl        1 R0_     -0.068600
      8 Cl2        -0.5590    0.3500    2.7190 cl        1 R0_     -0.052900
      9 Cl3         4.2560   -2.2820    2.8450 cl        1 R0_     -0.052900
     10 Cl4         1.8260   -0.9290    4.4220 cl        1 R0_     -0.037600
     11 H1         -0.0000   -0.0010   -0.0040 ha        1 R0_      0.169000
     12 H2          3.7690   -2.0620    0.0930 ha        1 R0_      0.169000
@<TRIPOS>BOND
     1    1    3 ar  
     2    1    4 ar  
     3    2    3 ar  
     4    2    5 ar  
     5    3    7 1   
     6    4    6 ar  
     7    4    8 1   
     8    5    6 ar  
     9    5    9 1   
    10    6   10 1   
    11    1   11 1   
    12    2   12 1   
@<TRIPOS>SUBSTRUCTURE
     1 R0_         1 TEMP              0 ****  ****    0 ROOT
