@<TRIPOS>MOLECULE
n_butyl_acetate
   20    19     1     0     0
SMALL
No Charge or Current Charge


@<TRIPOS>ATOM
      1 C1         -5.1170   -3.7750    0.1300 c         1 R0_      0.630300
      2 C2         -6.3470   -3.5920   -0.7070 c3        1 R0_     -0.145800
      3 C3          0.4040   -1.0520   -0.1120 c3        1 R0_     -0.090700
      4 C4         -0.5800   -2.0240    0.5200 c3        1 R0_     -0.076600
      5 C5         -1.9310   -1.9920   -0.1890 c3        1 R0_     -0.091500
      6 C6         -2.9050   -2.9950    0.4140 c3        1 R0_      0.141700
      7 O1         -5.0300   -4.5710    1.0540 o         1 R0_     -0.543600
      8 O2         -4.1330   -2.9260   -0.2970 os        1 R0_     -0.446900
      9 H1         -6.1240   -3.8310   -1.7500 hc        1 R0_      0.074300
     10 H2         -6.7090   -2.5650   -0.6160 hc        1 R0_      0.074300
     11 H3         -7.1300   -4.2700   -0.3540 hc        1 R0_      0.074300
     12 H4          0.5780   -1.2990   -1.1640 hc        1 R0_      0.033200
     13 H5          0.0300   -0.0250   -0.0580 hc        1 R0_      0.033200
     14 H6          1.3650   -1.0920    0.4100 hc        1 R0_      0.033200
     15 H7         -0.1610   -3.0360    0.4790 hc        1 R0_      0.041800
     16 H8         -0.7080   -1.7680    1.5780 hc        1 R0_      0.041800
     17 H9         -2.3650   -0.9870   -0.1340 hc        1 R0_      0.053000
     18 H10        -1.8040   -2.2070   -1.2570 hc        1 R0_      0.053000
     19 H11        -2.5140   -4.0140    0.3360 h1        1 R0_      0.055500
     20 H12        -3.0990   -2.7670    1.4670 h1        1 R0_      0.055500
@<TRIPOS>BOND
     1    1    2 1   
     2    1    7 2   
     3    1    8 1   
     4    3    4 1   
     5    4    5 1   
     6    5    6 1   
     7    6    8 1   
     8    2    9 1   
     9    2   10 1   
    10    2   11 1   
    11    3   12 1   
    12    3   13 1   
    13    3   14 1   
    14    4   15 1   
    15    4   16 1   
    16    5   17 1   
    17    5   18 1   
    18    6   19 1   
    19    6   20 1   
@<TRIPOS>SUBSTRUCTURE
     1 R0_         1 TEMP              0 ****  ****    0 ROOT
