@<TRIPOS>MOLECULE
2_methylpent_1_ene
   18    17     1     0     0
SMALL
No Charge or Current Charge


@<TRIPOS>ATOM
      1 C1          0.5820    0.4190    0.8430 c2        1 R0_     -0.228400
      2 C2         -0.0600    0.9920    1.8730 c2        1 R0_     -0.113100
      3 C3         -1.5340    0.7950    2.0830 c3        1 R0_     -0.058000
      4 C4          0.8970    4.0810    4.0050 c3        1 R0_     -0.090600
      5 C5          0.6740    1.8300    2.8920 c3        1 R0_     -0.042900
      6 C6          0.1240    3.2560    2.9870 c3        1 R0_     -0.073800
      7 H1          1.6470    0.5610    0.6920 ha        1 R0_      0.111500
      8 H2          0.0590   -0.2080    0.1290 ha        1 R0_      0.111500
      9 H3         -1.7240    0.3730    3.0750 hc        1 R0_      0.040000
     10 H4         -2.0670    1.7470    2.0010 hc        1 R0_      0.040000
     11 H5         -1.9660    0.1100    1.3450 hc        1 R0_      0.040000
     12 H6          1.9540    4.1570    3.7280 hc        1 R0_      0.032500
     13 H7          0.8340    3.6330    5.0020 hc        1 R0_      0.032500
     14 H8          0.4870    5.0940    4.0610 hc        1 R0_      0.032500
     15 H9          1.7430    1.8740    2.6450 hc        1 R0_      0.044200
     16 H10         0.6110    1.3380    3.8710 hc        1 R0_      0.044200
     17 H11        -0.9320    3.2390    3.2770 hc        1 R0_      0.038900
     18 H12         0.1840    3.7470    2.0080 hc        1 R0_      0.038900
@<TRIPOS>BOND
     1    1    2 2   
     2    2    3 1   
     3    2    5 1   
     4    4    6 1   
     5    5    6 1   
     6    1    7 1   
     7    1    8 1   
     8    3    9 1   
     9    3   10 1   
    10    3   11 1   
    11    4   12 1   
    12    4   13 1   
    13    4   14 1   
    14    5   15 1   
    15    5   16 1   
    16    6   17 1   
    17    6   18 1   
@<TRIPOS>SUBSTRUCTURE
     1 R0_         1 TEMP              0 ****  ****    0 ROOT
