@<TRIPOS>MOLECULE
nonan_5_one
   28    27     1     0     0
SMALL
No Charge or Current Charge


@<TRIPOS>ATOM
      1 C1          0.2370   -2.1820   -4.7280 c         1 R0_      0.560300
      2 C2         -1.1640   -0.3040   -0.2490 c3        1 R0_     -0.089200
      3 C3          1.5240   -4.3440   -9.1380 c3        1 R0_     -0.089200
      4 C4         -0.6040   -1.1540   -3.9880 c3        1 R0_     -0.178700
      5 C5          0.0830   -2.1870   -6.2420 c3        1 R0_     -0.178700
      6 C6         -1.3120   -0.2090   -1.7590 c3        1 R0_     -0.080200
      7 C7          0.7130   -3.2490   -8.4640 c3        1 R0_     -0.080200
      8 C8         -0.4250   -1.2270   -2.4730 c3        1 R0_     -0.070300
      9 C9          0.8880   -3.2800   -6.9440 c3        1 R0_     -0.070300
     10 O1          0.9710   -2.9750   -4.1390 o         1 R0_     -0.528300
     11 H1         -1.8050    0.4350    0.2420 hc        1 R0_      0.032100
     12 H2         -0.1310   -0.1150    0.0580 hc        1 R0_      0.032100
     13 H3         -1.4540   -1.2970    0.1120 hc        1 R0_      0.032100
     14 H4          1.3790   -4.3100  -10.2230 hc        1 R0_      0.032100
     15 H5          2.5920   -4.2230   -8.9340 hc        1 R0_      0.032100
     16 H6          1.2160   -5.3340   -8.7870 hc        1 R0_      0.032100
     17 H7         -0.3150   -0.1610   -4.3480 hc        1 R0_      0.062300
     18 H8         -1.6540   -1.3290   -4.2490 hc        1 R0_      0.062300
     19 H9          0.3720   -1.2030   -6.6270 hc        1 R0_      0.062300
     20 H10        -0.9830   -2.3360   -6.4520 hc        1 R0_      0.062300
     21 H11        -1.0500    0.8050   -2.0820 hc        1 R0_      0.041800
     22 H12        -2.3610   -0.3750   -2.0290 hc        1 R0_      0.041800
     23 H13        -0.3460   -3.3800   -8.7180 hc        1 R0_      0.041800
     24 H14         1.0230   -2.2790   -8.8650 hc        1 R0_      0.041800
     25 H15         0.6270   -1.0460   -2.2170 hc        1 R0_      0.048900
     26 H16        -0.6650   -2.2380   -2.1210 hc        1 R0_      0.048900
     27 H17         0.5500   -4.2530   -6.5690 hc        1 R0_      0.048900
     28 H18         1.9510   -3.1930   -6.6880 hc        1 R0_      0.048900
@<TRIPOS>BOND
     1    1    4 1   
     2    1    5 1   
     3    1   10 2   
     4    2    6 1   
     5    3    7 1   
     6    4    8 1   
     7    5    9 1   
     8    6    8 1   
     9    7    9 1   
    10    2   11 1   
    11    2   12 1   
    12    2   13 1   
    13    3   14 1   
    14    3   15 1   
    15    3   16 1   
    16    4   17 1   
    17    4   18 1   
    18    5   19 1   
    19    5   20 1   
    20    6   21 1   
    21    6   22 1   
    22    7   23 1   
    23    7   24 1   
    24    8   25 1   
    25    8   26 1   
    26    9   27 1   
    27    9   28 1   
@<TRIPOS>SUBSTRUCTURE
     1 R0_         1 TEMP              0 ****  ****    0 ROOT
