@<TRIPOS>MOLECULE
4_tert_butylphenol
   25    25     1     0     0
SMALL
No Charge or Current Charge


@<TRIPOS>ATOM
      1 C1         -0.9660   -1.0090    2.4080 ca        1 R0_     -0.092700
      2 C2         -3.2640   -1.5030    1.8510 ca        1 R0_     -0.092700
      3 C3         -0.9820   -2.0200    3.3690 ca        1 R0_     -0.184300
      4 C4         -3.2800   -2.5140    2.8120 ca        1 R0_     -0.184300
      5 C5         -2.1080   -0.7840    1.6810 ca        1 R0_     -0.089800
      6 C6         -2.1390   -2.7730    3.5710 ca        1 R0_      0.119600
      7 C7         -1.0060    0.0250   -0.4340 c3        1 R0_     -0.082800
      8 C8         -1.7780    1.6830    1.2950 c3        1 R0_     -0.082800
      9 C9         -3.4290    0.4950   -0.1340 c3        1 R0_     -0.082800
     10 C10        -2.0900    0.3300    0.6220 c3        1 R0_     -0.015000
     11 O1         -2.1540   -3.7580    4.5090 oh        1 R0_     -0.499900
     12 H1         -0.0600   -0.4290    2.2570 ha        1 R0_      0.134900
     13 H2         -4.1580   -1.3090    1.2640 ha        1 R0_      0.134900
     14 H3         -0.0890   -2.2180    3.9570 ha        1 R0_      0.140300
     15 H4         -4.1840   -3.0970    2.9640 ha        1 R0_      0.140300
     16 H5         -0.9950    0.7880   -1.2210 hc        1 R0_      0.035400
     17 H6          0.0000    0.0000    0.0000 hc        1 R0_      0.035400
     18 H7         -1.1820   -0.9450   -0.9120 hc        1 R0_      0.035400
     19 H8         -0.7880    1.6940    1.7650 hc        1 R0_      0.035400
     20 H9         -1.7940    2.5020    0.5660 hc        1 R0_      0.035400
     21 H10        -2.5140    1.9160    2.0740 hc        1 R0_      0.035400
     22 H11        -3.3660    1.2990   -0.8770 hc        1 R0_      0.035400
     23 H12        -3.7040   -0.4190   -0.6720 hc        1 R0_      0.035400
     24 H13        -4.2480    0.7500    0.5480 hc        1 R0_      0.035400
     25 H14        -1.3180   -4.2580    4.4550 ho        1 R0_      0.418300
@<TRIPOS>BOND
     1    1    3 ar  
     2    1    5 ar  
     3    2    4 ar  
     4    2    5 ar  
     5    3    6 ar  
     6    4    6 ar  
     7    5   10 1   
     8    6   11 1   
     9    7   10 1   
    10    8   10 1   
    11    9   10 1   
    12    1   12 1   
    13    2   13 1   
    14    3   14 1   
    15    4   15 1   
    16    7   16 1   
    17    7   17 1   
    18    7   18 1   
    19    8   19 1   
    20    8   20 1   
    21    8   21 1   
    22    9   22 1   
    23    9   23 1   
    24    9   24 1   
    25   11   25 1   
@<TRIPOS>SUBSTRUCTURE
     1 R0_         1 TEMP              0 ****  ****    0 ROOT
