@<TRIPOS>MOLECULE
res
   16    16     1     0     0
SMALL
bcc


@<TRIPOS>ATOM
      1 H11         0.0000   -0.5120    0.8370 hn        1 res       0.3072
      2 N1          0.0000    0.0210    0.0060 n         1 res      -0.6744
      3 H12        -0.0180   -0.5420   -0.8490 hn        1 res       0.3173
      4 C1         -0.0330    1.3620   -0.0910 c         1 res       0.6703
      5 O1         -0.0660    1.9680   -1.1890 o         1 res      -0.6107
      6 C2          0.0220    2.1320    1.1800 ca        1 res      -0.1414
      7 C3          0.5170    1.5740    2.3760 ca        1 res      -0.1042
      8 H31         0.9060    0.5850    2.4480 ha        1 res       0.1326
      9 C5          0.5160    2.3580    3.5470 ca        1 res      -0.1397
     10 H51         0.9130    1.9440    4.4470 ha        1 res       0.1355
     11 C7          0.0600    3.6780    3.5270 ca        1 res      -0.1081
     12 C6         -0.4140    4.2290    2.3510 ca        1 res      -0.1385
     13 H61        -0.7820    5.2540    2.3480 ha        1 res       0.1385
     14 C4         -0.4310    3.4770    1.1660 ca        1 res      -0.0769
     15 H41        -0.8170    3.9310    0.2740 ha        1 res       0.1573
     16 H71         0.0720    4.2690    4.4510 ha        1 res       0.1352
@<TRIPOS>BOND
     1    1    2 1   
     2    2    3 1   
     3    2    4 am  
     4    4    5 2   
     5    4    6 1   
     6    6    7 ar  
     7    6   14 ar  
     8    7    8 1   
     9    7    9 ar  
    10    9   10 1   
    11    9   11 ar  
    12   11   12 ar  
    13   11   16 1   
    14   12   13 1   
    15   12   14 ar  
    16   14   15 1   
@<TRIPOS>SUBSTRUCTURE
     1 res         1 TEMP              0 ****  ****    0 ROOT
