@<TRIPOS>MOLECULE
1_ethylnaphthalene
   24    25     1     0     0
SMALL
No Charge or Current Charge


@<TRIPOS>ATOM
      1 C1         -0.5680   -2.0630    0.2280 ca        1 R0_     -0.128400
      2 C2          0.3420   -1.0310    0.0180 ca        1 R0_     -0.129100
      3 C3          3.0390   -5.3110   -0.1010 ca        1 R0_     -0.124800
      4 C4         -0.1300   -3.3870    0.2510 ca        1 R0_     -0.118200
      5 C5          1.6940   -1.3190   -0.1680 ca        1 R0_     -0.119300
      6 C6          1.6870   -5.0230    0.0860 ca        1 R0_     -0.122100
      7 C7          3.9500   -4.2790   -0.3090 ca        1 R0_     -0.129800
      8 C8          1.2280   -3.6950    0.0650 ca        1 R0_     -0.035600
      9 C9          2.1530   -2.6460   -0.1470 ca        1 R0_     -0.029500
     10 C10         3.5110   -2.9550   -0.3330 ca        1 R0_     -0.051900
     11 C11         5.1500   -1.3910    0.7410 c3        1 R0_     -0.088300
     12 C12         4.5420   -1.8940   -0.5630 c3        1 R0_     -0.048200
     13 H1         -1.6210   -1.8370    0.3710 ha        1 R0_      0.131600
     14 H2         -0.0010   -0.0000   -0.0000 ha        1 R0_      0.131000
     15 H3          3.3810   -6.3420   -0.0820 ha        1 R0_      0.131300
     16 H4         -0.8590   -4.1770    0.4160 ha        1 R0_      0.131600
     17 H5          2.3740   -0.4860   -0.3290 ha        1 R0_      0.133200
     18 H6          0.9930   -5.8450    0.2480 ha        1 R0_      0.131700
     19 H7          5.0010   -4.5160   -0.4520 ha        1 R0_      0.132300
     20 H8          4.3830   -0.9600    1.3940 hc        1 R0_      0.036100
     21 H9          5.9000   -0.6190    0.5430 hc        1 R0_      0.036100
     22 H10         5.6380   -2.2050    1.2880 hc        1 R0_      0.036100
     23 H11         5.3420   -2.2780   -1.2130 hc        1 R0_      0.047000
     24 H12         4.0990   -1.0480   -1.1080 hc        1 R0_      0.047000
@<TRIPOS>BOND
     1    1    2 ar  
     2    1    4 ar  
     3    2    5 ar  
     4    3    6 ar  
     5    3    7 ar  
     6    4    8 ar  
     7    5    9 ar  
     8    6    8 ar  
     9    7   10 ar  
    10    8    9 ar  
    11    9   10 ar  
    12   10   12 1   
    13   11   12 1   
    14    1   13 1   
    15    2   14 1   
    16    3   15 1   
    17    4   16 1   
    18    5   17 1   
    19    6   18 1   
    20    7   19 1   
    21   11   20 1   
    22   11   21 1   
    23   11   22 1   
    24   12   23 1   
    25   12   24 1   
@<TRIPOS>SUBSTRUCTURE
     1 R0_         1 TEMP              0 ****  ****    0 ROOT
