@<TRIPOS>MOLECULE
CUP08014_AM1BCC_v1_0
   24    25     1     0     0
SMALL
No Charge or Current Charge


@<TRIPOS>ATOM
      1 C1          1.6310   -1.0360   -0.8220 c2        1 R0_     -0.172600
      2 C2          0.8150   -0.6630    0.1850 c2        1 R0_     -0.172600
      3 C3          3.6380   -3.6700    1.1700 c         1 R0_      0.704900
      4 C4          2.5080   -2.7600    2.9560 c         1 R0_      0.704900
      5 C5          2.7250   -2.0730   -0.6740 c3        1 R0_     -0.028900
      6 C6          0.9400   -1.1830    1.6020 c3        1 R0_     -0.028900
      7 C7          2.5190   -2.8380    0.6170 c3        1 R0_     -0.139000
      8 C8          2.2800   -1.8710    1.7680 c3        1 R0_     -0.139000
      9 C9          3.2750   -6.2380    3.6090 c3        1 R0_      0.238500
     10 N1          3.4080   -3.7240    2.5340 n         1 R0_     -0.465200
     11 O1          4.5120   -4.2130    0.5170 o         1 R0_     -0.527200
     12 O2          2.0440   -2.5830    4.0700 o         1 R0_     -0.527200
     13 S1          4.2770   -4.7120    3.5960 ss        1 R0_      0.094900
     14 Cl1         4.0240   -7.4070    4.7460 cl        1 R0_     -0.095000
     15 Cl2         1.6010   -5.9260    4.1510 cl        1 R0_     -0.095000
     16 Cl3         3.2170   -6.9950    1.9910 cl        1 R0_     -0.095000
     17 H1          1.5010   -0.5950   -1.8080 ha        1 R0_      0.134900
     18 H2          0.0290    0.0650   -0.0040 ha        1 R0_      0.134900
     19 H3          2.6930   -2.7650   -1.5230 hc        1 R0_      0.069400
     20 H4          3.7040   -1.5790   -0.6980 hc        1 R0_      0.069400
     21 H5          0.8640   -0.3480    2.3080 hc        1 R0_      0.069400
     22 H6          0.1080   -1.8630    1.8180 hc        1 R0_      0.069400
     23 H7          1.6620   -3.5210    0.4980 hc        1 R0_      0.097500
     24 H8          3.0750   -1.1100    1.8030 hc        1 R0_      0.097500
@<TRIPOS>BOND
     1    1    2 2   
     2    1    5 1   
     3    2    6 1   
     4    3    7 1   
     5    3   10 1   
     6    3   11 2   
     7    4    8 1   
     8    4   10 1   
     9    4   12 2   
    10    5    7 1   
    11    6    8 1   
    12    7    8 1   
    13    9   13 1   
    14    9   14 1   
    15    9   15 1   
    16    9   16 1   
    17   10   13 1   
    18    1   17 1   
    19    2   18 1   
    20    5   19 1   
    21    5   20 1   
    22    6   21 1   
    23    6   22 1   
    24    7   23 1   
    25    8   24 1   
@<TRIPOS>SUBSTRUCTURE
     1 R0_         1 TEMP              0 ****  ****    0 ROOT
