@<TRIPOS>MOLECULE
isobutyraldehyde
   13    12     1     0     0
SMALL
No Charge or Current Charge


@<TRIPOS>ATOM
      1 C1         -2.1990    0.5040    1.5020 c         1 R0_      0.562700
      2 C2         -0.4390   -0.8920    0.4600 c3        1 R0_     -0.084400
      3 C3         -2.5620   -1.9750    1.2570 c3        1 R0_     -0.084400
      4 C4         -1.9420   -0.7230    0.6490 c3        1 R0_     -0.183000
      5 O1         -2.8150    0.4990    2.5630 o         1 R0_     -0.520200
      6 H1         -1.8230    1.4550    1.0840 h4        1 R0_     -0.007700
      7 H2          0.0000    0.0000    0.0000 hc        1 R0_      0.041000
      8 H3         -0.2200   -1.7480   -0.1870 hc        1 R0_      0.041000
      9 H4          0.0660   -1.0490    1.4190 hc        1 R0_      0.041000
     10 H5         -2.3870   -2.8470    0.6190 hc        1 R0_      0.041000
     11 H6         -3.6450   -1.8560    1.3750 hc        1 R0_      0.041000
     12 H7         -2.1430   -2.1870    2.2470 hc        1 R0_      0.041000
     13 H8         -2.4060   -0.5330   -0.3260 hc        1 R0_      0.071300
@<TRIPOS>BOND
     1    1    4 1   
     2    1    5 2   
     3    2    4 1   
     4    3    4 1   
     5    1    6 1   
     6    2    7 1   
     7    2    8 1   
     8    2    9 1   
     9    3   10 1   
    10    3   11 1   
    11    3   12 1   
    12    4   13 1   
@<TRIPOS>SUBSTRUCTURE
     1 R0_         1 TEMP              0 ****  ****    0 ROOT
