@<TRIPOS>MOLECULE
heptan_4_one
   22    21     1     0     0
SMALL
No Charge or Current Charge


@<TRIPOS>ATOM
      1 C1          2.6510    2.6140    2.8470 c         1 R0_      0.559400
      2 C2          1.0140    0.3950    0.1170 c3        1 R0_     -0.092300
      3 C3          5.4840    4.5630    4.6450 c3        1 R0_     -0.092300
      4 C4          2.5200    1.7870    1.5770 c3        1 R0_     -0.179000
      5 C5          4.0250    3.2150    3.0970 c3        1 R0_     -0.179000
      6 C6          1.1270    1.1880    1.4080 c3        1 R0_     -0.071500
      7 C7          4.0920    4.0010    4.4030 c3        1 R0_     -0.071500
      8 O1          1.7090    2.7840    3.6190 o         1 R0_     -0.527700
      9 H1          1.7320   -0.4320    0.1000 hc        1 R0_      0.035200
     10 H2          0.0090   -0.0270    0.0170 hc        1 R0_      0.035200
     11 H3          1.2030    1.0320   -0.7530 hc        1 R0_      0.035200
     12 H4          5.7810    5.2370    3.8350 hc        1 R0_      0.035200
     13 H5          5.5080    5.1270    5.5820 hc        1 R0_      0.035200
     14 H6          6.2240    3.7600    4.7130 hc        1 R0_      0.035200
     15 H7          2.7510    2.4380    0.7260 hc        1 R0_      0.061900
     16 H8          3.2680    0.9870    1.6180 hc        1 R0_      0.061900
     17 H9          4.2630    3.8730    2.2540 hc        1 R0_      0.061900
     18 H10         4.7520    2.3960    3.1170 hc        1 R0_      0.061900
     19 H11         0.8960    0.5320    2.2560 hc        1 R0_      0.048800
     20 H12         0.3740    1.9850    1.4100 hc        1 R0_      0.048800
     21 H13         3.3690    4.8250    4.3820 hc        1 R0_      0.048800
     22 H14         3.8120    3.3550    5.2440 hc        1 R0_      0.048800
@<TRIPOS>BOND
     1    1    4 1   
     2    1    5 1   
     3    1    8 2   
     4    2    6 1   
     5    3    7 1   
     6    4    6 1   
     7    5    7 1   
     8    2    9 1   
     9    2   10 1   
    10    2   11 1   
    11    3   12 1   
    12    3   13 1   
    13    3   14 1   
    14    4   15 1   
    15    4   16 1   
    16    5   17 1   
    17    5   18 1   
    18    6   19 1   
    19    6   20 1   
    20    7   21 1   
    21    7   22 1   
@<TRIPOS>SUBSTRUCTURE
     1 R0_         1 TEMP              0 ****  ****    0 ROOT
