@<TRIPOS>MOLECULE
decan_2_one
   31    30     1     0     0
SMALL
No Charge or Current Charge


@<TRIPOS>ATOM
      1 C1          0.6640   -1.1480    1.6810 c         1 R0_      0.559000
      2 C2          0.9960   -0.4530    0.3870 c3        1 R0_     -0.200500
      3 C3         -4.1310   -8.5710    6.5800 c3        1 R0_     -0.089800
      4 C4         -0.2780   -2.3350    1.5800 c3        1 R0_     -0.178600
      5 C5         -3.8500   -7.9280    5.2310 c3        1 R0_     -0.077400
      6 C6         -0.5310   -2.9990    2.9320 c3        1 R0_     -0.070400
      7 C7         -2.8780   -6.7560    5.3600 c3        1 R0_     -0.077400
      8 C8         -1.4510   -4.2130    2.7920 c3        1 R0_     -0.079600
      9 C9         -2.6250   -6.0910    4.0060 c3        1 R0_     -0.076200
     10 C10        -1.6780   -4.8970    4.1410 c3        1 R0_     -0.075100
     11 O1          1.1360   -0.7600    2.7490 o         1 R0_     -0.528600
     12 H1          1.4700   -1.1600   -0.2980 hc        1 R0_      0.061800
     13 H2          0.0820   -0.0520   -0.0570 hc        1 R0_      0.061800
     14 H3          1.6880    0.3710    0.5770 hc        1 R0_      0.061800
     15 H4         -3.2100   -8.9560    7.0300 hc        1 R0_      0.031700
     16 H5         -4.8280   -9.4060    6.4640 hc        1 R0_      0.031700
     17 H6         -4.5770   -7.8500    7.2730 hc        1 R0_      0.031700
     18 H7         -1.2230   -1.9790    1.1560 hc        1 R0_      0.062800
     19 H8          0.1660   -3.0580    0.8860 hc        1 R0_      0.062800
     20 H9         -4.7940   -7.5830    4.7940 hc        1 R0_      0.036800
     21 H10        -3.4350   -8.6830    4.5530 hc        1 R0_      0.036800
     22 H11        -0.9800   -2.2730    3.6210 hc        1 R0_      0.048800
     23 H12         0.4230   -3.3080    3.3760 hc        1 R0_      0.048800
     24 H13        -1.9280   -7.1100    5.7790 hc        1 R0_      0.039100
     25 H14        -3.2850   -6.0170    6.0620 hc        1 R0_      0.039100
     26 H15        -2.4150   -3.8970    2.3730 hc        1 R0_      0.042900
     27 H16        -1.0110   -4.9280    2.0860 hc        1 R0_      0.042900
     28 H17        -2.1950   -6.8240    3.3120 hc        1 R0_      0.038500
     29 H18        -3.5770   -5.7580    3.5760 hc        1 R0_      0.038500
     30 H19        -0.7170   -5.2340    4.5480 hc        1 R0_      0.038100
     31 H20        -2.0960   -4.1760    4.8530 hc        1 R0_      0.038100
@<TRIPOS>BOND
     1    1    2 1   
     2    1    4 1   
     3    1   11 2   
     4    3    5 1   
     5    4    6 1   
     6    5    7 1   
     7    6    8 1   
     8    7    9 1   
     9    8   10 1   
    10    9   10 1   
    11    2   12 1   
    12    2   13 1   
    13    2   14 1   
    14    3   15 1   
    15    3   16 1   
    16    3   17 1   
    17    4   18 1   
    18    4   19 1   
    19    5   20 1   
    20    5   21 1   
    21    6   22 1   
    22    6   23 1   
    23    7   24 1   
    24    7   25 1   
    25    8   26 1   
    26    8   27 1   
    27    9   28 1   
    28    9   29 1   
    29   10   30 1   
    30   10   31 1   
@<TRIPOS>SUBSTRUCTURE
     1 R0_         1 TEMP              0 ****  ****    0 ROOT
