@<TRIPOS>MOLECULE
4_formylpyridine
   13    13     1     0     0
SMALL
No Charge or Current Charge


@<TRIPOS>ATOM
      1 C1          0.1830   -0.3460    1.0110 ca        1 R0_     -0.198300
      2 C2          1.5260   -0.4070    3.0050 ca        1 R0_     -0.198300
      3 C3         -0.7040   -1.2000    1.6470 ca        1 R0_      0.383800
      4 C4          0.5790   -1.2580    3.5520 ca        1 R0_      0.383800
      5 C5          1.3170    0.0530    1.7100 ca        1 R0_     -0.158100
      6 C6          2.2800    0.9480    1.0890 c         1 R0_      0.568900
      7 N1         -0.5340   -1.6670    2.9040 nb        1 R0_     -0.643400
      8 O1          3.3040    1.3370    1.6580 o         1 R0_     -0.511100
      9 H1         -0.0090   -0.0060   -0.0020 ha        1 R0_      0.155400
     10 H2          2.4010   -0.1150    3.5770 ha        1 R0_      0.155400
     11 H3         -1.6030   -1.5410    1.1450 h4        1 R0_      0.028300
     12 H4          0.6960   -1.6450    4.5590 h4        1 R0_      0.028300
     13 H5          2.0680    1.2880    0.0510 h4        1 R0_      0.005100
@<TRIPOS>BOND
     1    1    3 ar  
     2    1    5 ar  
     3    2    4 ar  
     4    2    5 ar  
     5    3    7 ar  
     6    4    7 ar  
     7    5    6 1   
     8    6    8 2   
     9    1    9 1   
    10    2   10 1   
    11    3   11 1   
    12    4   12 1   
    13    6   13 1   
@<TRIPOS>SUBSTRUCTURE
     1 R0_         1 TEMP              0 ****  ****    0 ROOT
