@<TRIPOS>MOLECULE
CUP08045_AM1BCC_v1_0
   30    29     1     0     0
SMALL
No Charge or Current Charge


@<TRIPOS>ATOM
      1 C1         -0.2530   -0.3130   -0.2170 c3        1 R0_     -0.103600
      2 C2          0.2970   -1.2190    5.7250 c3        1 R0_     -0.103600
      3 C3          8.9200   -1.9660    0.0310 c3        1 R0_     -0.093400
      4 C4          0.9530    0.2590    0.4990 c3        1 R0_      0.133300
      5 C5          1.0240   -0.2550    4.8090 c3        1 R0_      0.133300
      6 C6          7.7090   -1.1920    0.5180 c3        1 R0_     -0.061400
      7 C7          5.0910   -1.1090    1.3540 c3        1 R0_      0.133700
      8 O1          0.9940   -0.2820    1.8110 os        1 R0_     -0.465800
      9 O2          1.9110   -1.0000    3.9890 os        1 R0_     -0.465800
     10 P1          2.4250   -0.3600    2.5830 p5        1 R0_      0.625900
     11 S1          3.2730    1.3810    2.8110 s         1 R0_     -0.460600
     12 S2          6.3110   -2.3210    0.7840 ss        1 R0_     -0.025000
     13 S3          3.5050   -1.9060    1.6580 ss        1 R0_     -0.348800
     14 H1         -0.1840   -1.4040   -0.2730 hc        1 R0_      0.050100
     15 H2         -1.1730   -0.0790    0.3280 hc        1 R0_      0.050100
     16 H3         -0.3310    0.0880   -1.2320 hc        1 R0_      0.050100
     17 H4         -0.2700   -1.9510    5.1400 hc        1 R0_      0.050100
     18 H5          1.0080   -1.7820    6.3370 hc        1 R0_      0.050100
     19 H6         -0.3920   -0.6850    6.3850 hc        1 R0_      0.050100
     20 H7          9.2400   -2.7140    0.7640 hc        1 R0_      0.044700
     21 H8          8.7190   -2.4730   -0.9190 hc        1 R0_      0.044700
     22 H9          9.7590   -1.2820   -0.1310 hc        1 R0_      0.044700
     23 H10         0.8670    1.3480    0.5680 h1        1 R0_      0.066500
     24 H11         1.8660    0.0120   -0.0520 h1        1 R0_      0.066500
     25 H12         1.6020    0.4580    5.4040 h1        1 R0_      0.066500
     26 H13         0.3010    0.2940    4.1990 h1        1 R0_      0.066500
     27 H14         7.4280   -0.4390   -0.2250 h1        1 R0_      0.094100
     28 H15         7.9480   -0.6840    1.4580 h1        1 R0_      0.094100
     29 H16         5.4470   -0.6480    2.2790 h2        1 R0_      0.106200
     30 H17         4.9620   -0.3340    0.5930 h2        1 R0_      0.106200
@<TRIPOS>BOND
     1    1    4 1   
     2    2    5 1   
     3    3    6 1   
     4    4    8 1   
     5    5    9 1   
     6    6   12 1   
     7    7   12 1   
     8    7   13 1   
     9    8   10 1   
    10    9   10 1   
    11   10   11 2   
    12   10   13 1   
    13    1   14 1   
    14    1   15 1   
    15    1   16 1   
    16    2   17 1   
    17    2   18 1   
    18    2   19 1   
    19    3   20 1   
    20    3   21 1   
    21    3   22 1   
    22    4   23 1   
    23    4   24 1   
    24    5   25 1   
    25    5   26 1   
    26    6   27 1   
    27    6   28 1   
    28    7   29 1   
    29    7   30 1   
@<TRIPOS>SUBSTRUCTURE
     1 R0_         1 TEMP              0 ****  ****    0 ROOT
