@<TRIPOS>MOLECULE
dimethyl_sulfoxide
   10     9     1     0     0
SMALL
No Charge or Current Charge


@<TRIPOS>ATOM
      1 C1          0.8480   -0.5800    0.3720 c3        1 R0_     -0.124200
      2 C2          1.5010    1.5520    1.8670 c3        1 R0_     -0.124200
      3 O1          2.3870   -0.8810    2.5400 o         1 R0_     -0.506600
      4 S1          1.1190   -0.1980    2.1200 s4        1 R0_      0.265200
      5 H1          1.2140   -1.5870    0.1630 h1        1 R0_      0.081700
      6 H2          1.3890    0.1470   -0.2380 h1        1 R0_      0.081700
      7 H3         -0.2210   -0.5210    0.1570 h1        1 R0_      0.081700
      8 H4          0.6340    2.1540    2.1480 h1        1 R0_      0.081700
      9 H5          1.7400    1.7150    0.8150 h1        1 R0_      0.081700
     10 H6          2.3570    1.8220    2.4890 h1        1 R0_      0.081700
@<TRIPOS>BOND
     1    1    4 1   
     2    2    4 1   
     3    3    4 2   
     4    1    5 1   
     5    1    6 1   
     6    1    7 1   
     7    2    8 1   
     8    2    9 1   
     9    2   10 1   
@<TRIPOS>SUBSTRUCTURE
     1 R0_         1 TEMP              0 ****  ****    0 ROOT
