@<TRIPOS>MOLECULE
CUP08040_AM1BCC_v1_0
   42    42     1     0     0
SMALL
No Charge or Current Charge


@<TRIPOS>ATOM
      1 C1          4.0860   -1.9690   -4.0930 ca        1 R0_      0.068800
      2 C2          4.6520   -1.6550   -1.7650 ca        1 R0_      0.068800
      3 C3          3.1950   -0.8870   -3.9910 ca        1 R0_     -0.237600
      4 C4          3.7510   -0.5740   -1.7060 ca        1 R0_     -0.237600
      5 C5          2.9680   -0.1570   -2.8020 ca        1 R0_      0.349000
      6 C6          4.7960   -2.3560   -2.9610 ca        1 R0_     -0.401700
      7 C7         -1.1940   -0.5700   -1.2720 c3        1 R0_     -0.091400
      8 C8          2.4500    4.4800   -4.0010 c3        1 R0_     -0.091400
      9 C9          4.9790   -5.1300   -2.7010 c3        1 R0_     -0.368400
     10 C10         0.0390   -0.5050   -2.1590 c3        1 R0_     -0.107700
     11 C11         1.8200    3.1040   -3.8520 c3        1 R0_     -0.107700
     12 C12         0.8630    0.7540   -1.8770 c3        1 R0_      0.228300
     13 C13         2.6140    2.2300   -2.8770 c3        1 R0_      0.228300
     14 N1          2.0160    0.8760   -2.7990 nh        1 R0_     -0.724700
     15 N2          2.4670   -0.5410   -5.1950 no        1 R0_      0.317300
     16 N3          3.6830    0.1100   -0.4320 no        1 R0_      0.317300
     17 O1          1.4740   -1.2320   -5.4610 o         1 R0_     -0.187900
     18 O2          2.9430    0.3580   -5.9000 o         1 R0_     -0.187900
     19 O3          3.1290   -0.4990    0.4930 o         1 R0_     -0.187900
     20 O4          4.2170    1.2220   -0.3540 o         1 R0_     -0.187900
     21 O5          6.3880   -3.7720   -4.4470 o         1 R0_     -0.645400
     22 O6          6.9140   -3.5100   -1.9920 o         1 R0_     -0.645400
     23 S1          5.9590   -3.6980   -3.0660 sy        1 R0_      1.402000
     24 H1          4.2190   -2.4860   -5.0430 ha        1 R0_      0.191100
     25 H2          5.2370   -1.9300   -0.8870 ha        1 R0_      0.191100
     26 H3         -0.9150   -0.5860   -0.2130 hc        1 R0_      0.038700
     27 H4         -1.8470    0.2920   -1.4430 hc        1 R0_      0.038700
     28 H5         -1.7670   -1.4780   -1.4860 hc        1 R0_      0.038700
     29 H6          2.4840    5.0020   -3.0400 hc        1 R0_      0.038700
     30 H7          3.4700    4.4050   -4.3890 hc        1 R0_      0.038700
     31 H8          1.8660    5.0900   -4.6980 hc        1 R0_      0.038700
     32 H9          5.6290   -6.0060   -2.7450 h1        1 R0_      0.121000
     33 H10         4.5590   -5.0290   -1.6980 h1        1 R0_      0.121000
     34 H11         4.1860   -5.2190   -3.4470 h1        1 R0_      0.121000
     35 H12        -0.2730   -0.5180   -3.2100 hc        1 R0_      0.056600
     36 H13         0.6400   -1.4060   -1.9910 hc        1 R0_      0.056600
     37 H14         1.7700    2.6230   -4.8350 hc        1 R0_      0.056600
     38 H15         0.7870    3.2220   -3.5070 hc        1 R0_      0.056600
     39 H16         0.2080    1.6220   -2.0150 h1        1 R0_      0.056800
     40 H17         1.1810    0.7830   -0.8310 h1        1 R0_      0.056800
     41 H18         3.6550    2.1790   -3.2240 h1        1 R0_      0.056800
     42 H19         2.6260    2.6970   -1.8850 h1        1 R0_      0.056800
@<TRIPOS>BOND
     1    1    3 ar  
     2    1    6 ar  
     3    2    4 ar  
     4    2    6 ar  
     5    3    5 ar  
     6    3   15 1   
     7    4    5 ar  
     8    4   16 1   
     9    5   14 1   
    10    6   23 1   
    11    7   10 1   
    12    8   11 1   
    13    9   23 1   
    14   10   12 1   
    15   11   13 1   
    16   12   14 1   
    17   13   14 1   
    18   15   17 1   
    19   15   18 1   
    20   16   19 1   
    21   16   20 1   
    22   21   23 2   
    23   22   23 2   
    24    1   24 1   
    25    2   25 1   
    26    7   26 1   
    27    7   27 1   
    28    7   28 1   
    29    8   29 1   
    30    8   30 1   
    31    8   31 1   
    32    9   32 1   
    33    9   33 1   
    34    9   34 1   
    35   10   35 1   
    36   10   36 1   
    37   11   37 1   
    38   11   38 1   
    39   12   39 1   
    40   12   40 1   
    41   13   41 1   
    42   13   42 1   
@<TRIPOS>SUBSTRUCTURE
     1 R0_         1 TEMP              0 ****  ****    0 ROOT
