@<TRIPOS>MOLECULE
1,1,2,2-tetrachloroethane
    8     7     1     0     0
SMALL
No Charge or Current Charge


@<TRIPOS>ATOM
      1 C1          0.4210    0.2030   -0.6170 c3        1 <0>      0.123300
      2 C2         -0.4360    0.0140    0.6390 c3        1 <0>      0.122000
      3 Cl1         1.5840   -1.1260   -0.8840 cl        1 <0>     -0.108400
      4 Cl2        -0.6000    0.3910   -2.0720 cl        1 <0>     -0.128800
      5 Cl3        -1.4330   -1.4670    0.5970 cl        1 <0>     -0.109100
      6 Cl4         0.5750   -0.0000    2.1130 cl        1 <0>     -0.126000
      7 H1          1.0080    1.1230   -0.5370 h2        1 <0>      0.113800
      8 H2         -1.1270    0.8550    0.7530 h2        1 <0>      0.113200
@<TRIPOS>BOND
     1    1    2 1   
     2    1    3 1   
     3    1    4 1   
     4    2    5 1   
     5    2    6 1   
     6    1    7 1   
     7    2    8 1   
@<TRIPOS>SUBSTRUCTURE
     1 <0>         1 TEMP              0 ****  ****    0 ROOT
