@<TRIPOS>MOLECULE
methyl_cyclohexyl_ketone
   23    23     1     0     0
SMALL
No Charge or Current Charge


@<TRIPOS>ATOM
      1 C1         -0.9220    0.2620   -0.5380 c         1 R0_      0.563000
      2 C2         -3.6080   -2.8790   -1.7940 c3        1 R0_     -0.075300
      3 C3         -2.1230   -3.2080   -1.6770 c3        1 R0_     -0.075300
      4 C4         -3.8300   -1.4770   -2.3550 c3        1 R0_     -0.075300
      5 C5         -1.3750   -2.1560   -0.8630 c3        1 R0_     -0.065600
      6 C6         -3.0860   -0.4210   -1.5420 c3        1 R0_     -0.065600
      7 C7         -1.5960   -0.7480   -1.4190 c3        1 R0_     -0.159100
      8 C8          0.5160    0.5780   -0.8480 c3        1 R0_     -0.197200
      9 O1         -1.5150    0.8020    0.3940 o         1 R0_     -0.532100
     10 H1         -4.1010   -3.6160   -2.4380 hc        1 R0_      0.039600
     11 H2         -4.0770   -2.9540   -0.8050 hc        1 R0_      0.039600
     12 H3         -1.9990   -4.1920   -1.2120 hc        1 R0_      0.041900
     13 H4         -1.6840   -3.2710   -2.6810 hc        1 R0_      0.041900
     14 H5         -3.4870   -1.4430   -3.3960 hc        1 R0_      0.041900
     15 H6         -4.9020   -1.2480   -2.3630 hc        1 R0_      0.041900
     16 H7         -1.7070   -2.2020    0.1830 hc        1 R0_      0.045200
     17 H8         -0.3040   -2.3920   -0.8560 hc        1 R0_      0.045200
     18 H9         -3.2170    0.5620   -2.0100 hc        1 R0_      0.045200
     19 H10        -3.5360   -0.3480   -0.5430 hc        1 R0_      0.045200
     20 H11        -1.1250   -0.6700   -2.4070 hc        1 R0_      0.068000
     21 H12         1.1180   -0.3290   -0.7590 hc        1 R0_      0.062300
     22 H13         0.5920    0.9830   -1.8610 hc        1 R0_      0.062300
     23 H14         0.8910    1.3230   -0.1410 hc        1 R0_      0.062300
@<TRIPOS>BOND
     1    1    7 1   
     2    1    8 1   
     3    1    9 2   
     4    2    3 1   
     5    2    4 1   
     6    3    5 1   
     7    4    6 1   
     8    5    7 1   
     9    6    7 1   
    10    2   10 1   
    11    2   11 1   
    12    3   12 1   
    13    3   13 1   
    14    4   14 1   
    15    4   15 1   
    16    5   16 1   
    17    5   17 1   
    18    6   18 1   
    19    6   19 1   
    20    7   20 1   
    21    8   21 1   
    22    8   22 1   
    23    8   23 1   
@<TRIPOS>SUBSTRUCTURE
     1 R0_         1 TEMP              0 ****  ****    0 ROOT
