@<TRIPOS>MOLECULE
hept_1_yne
   19    18     1     0     0
SMALL
No Charge or Current Charge


@<TRIPOS>ATOM
      1 C1          1.4730    1.7270    7.8630 c1        1 R0_     -0.162600
      2 C2          1.4160    0.9600    6.9410 c1        1 R0_     -0.130300
      3 C3          0.3160   -0.5240    0.9080 c3        1 R0_     -0.090000
      4 C4          1.3490    0.0170    5.8160 c3        1 R0_     -0.009400
      5 C5          0.3840    0.4440    2.0780 c3        1 R0_     -0.077900
      6 C6          0.9000    0.7190    4.5350 c3        1 R0_     -0.073900
      7 C7          0.8650   -0.2500    3.3520 c3        1 R0_     -0.078800
      8 H1          1.5240    2.4080    8.6810 ha        1 R0_      0.162900
      9 H2         -0.0310   -0.0080    0.0080 hc        1 R0_      0.032100
     10 H3         -0.3780   -1.3450    1.1170 hc        1 R0_      0.032100
     11 H4          1.3000   -0.9530    0.6960 hc        1 R0_      0.032100
     12 H5          2.3340   -0.4400    5.6640 hc        1 R0_      0.057400
     13 H6          0.6530   -0.7930    6.0600 hc        1 R0_      0.057400
     14 H7          1.0610    1.2680    1.8240 hc        1 R0_      0.038900
     15 H8         -0.6090    0.8790    2.2430 hc        1 R0_      0.038900
     16 H9         -0.0960    1.1570    4.6810 hc        1 R0_      0.046600
     17 H10         1.5800    1.5500    4.3090 hc        1 R0_      0.046600
     18 H11         1.8670   -0.6660    3.1880 hc        1 R0_      0.039100
     19 H12         0.2000   -1.0910    3.5860 hc        1 R0_      0.039100
@<TRIPOS>BOND
     1    1    2 3   
     2    2    4 1   
     3    3    5 1   
     4    4    6 1   
     5    5    7 1   
     6    6    7 1   
     7    1    8 1   
     8    3    9 1   
     9    3   10 1   
    10    3   11 1   
    11    4   12 1   
    12    4   13 1   
    13    5   14 1   
    14    5   15 1   
    15    6   16 1   
    16    6   17 1   
    17    7   18 1   
    18    7   19 1   
@<TRIPOS>SUBSTRUCTURE
     1 R0_         1 TEMP              0 ****  ****    0 ROOT
