@<TRIPOS>MOLECULE
1_chloroheptane
   23    22     1     0     0
SMALL
No Charge or Current Charge


@<TRIPOS>ATOM
      1 C1          0.2260   -0.5460    0.9150 c3        1 R0_     -0.089800
      2 C2          1.7050   -0.4220    1.2440 c3        1 R0_     -0.078200
      3 C3          2.5760   -1.0410    0.1510 c3        1 R0_     -0.077200
      4 C4          4.0620   -0.9450    0.5020 c3        1 R0_     -0.076700
      5 C5          4.9330   -1.5310   -0.6110 c3        1 R0_     -0.079300
      6 C6          6.4330   -1.4730   -0.3050 c3        1 R0_     -0.087700
      7 C7          7.2920   -2.0820   -1.4050 c3        1 R0_      0.041700
      8 Cl1         9.0140   -2.0010   -0.9600 cl        1 R0_     -0.202500
      9 H1         -0.3790   -0.0980    1.7100 hc        1 R0_      0.032000
     10 H2         -0.0120   -0.0330   -0.0220 hc        1 R0_      0.032000
     11 H3         -0.0670   -1.5960    0.8170 hc        1 R0_      0.032000
     12 H4          1.9020   -0.9160    2.2030 hc        1 R0_      0.037700
     13 H5          1.9580    0.6370    1.3670 hc        1 R0_      0.037700
     14 H6          2.3890   -0.5300   -0.8000 hc        1 R0_      0.039600
     15 H7          2.2990   -2.0940    0.0130 hc        1 R0_      0.039600
     16 H8          4.2430   -1.4790    1.4420 hc        1 R0_      0.039200
     17 H9          4.3330    0.1050    0.6670 hc        1 R0_      0.039200
     18 H10         4.7510   -0.9740   -1.5390 hc        1 R0_      0.045000
     19 H11         4.6380   -2.5700   -0.8050 hc        1 R0_      0.045000
     20 H12         6.7100   -0.4190   -0.1700 hc        1 R0_      0.053100
     21 H13         6.6310   -1.9760    0.6490 hc        1 R0_      0.053100
     22 H14         7.0520   -3.1360   -1.5680 h1        1 R0_      0.062400
     23 H15         7.1680   -1.5430   -2.3490 h1        1 R0_      0.062400
@<TRIPOS>BOND
     1    1    2 1   
     2    2    3 1   
     3    3    4 1   
     4    4    5 1   
     5    5    6 1   
     6    6    7 1   
     7    7    8 1   
     8    1    9 1   
     9    1   10 1   
    10    1   11 1   
    11    2   12 1   
    12    2   13 1   
    13    3   14 1   
    14    3   15 1   
    15    4   16 1   
    16    4   17 1   
    17    5   18 1   
    18    5   19 1   
    19    6   20 1   
    20    6   21 1   
    21    7   22 1   
    22    7   23 1   
@<TRIPOS>SUBSTRUCTURE
     1 R0_         1 TEMP              0 ****  ****    0 ROOT
