@<TRIPOS>MOLECULE
CUP08031_AM1BCC_v1_0
   41    40     1     0     0
SMALL
No Charge or Current Charge


@<TRIPOS>ATOM
      1 C1          1.1670    0.3570    1.5410 c3        1 R0_     -0.112900
      2 C2          5.3350   -2.5700   -3.2050 c3        1 R0_     -0.112900
      3 C3         -1.1850   -2.5900   -9.0760 c3        1 R0_     -0.112900
      4 C4         -6.0990   -0.8070   -5.9280 c3        1 R0_     -0.112900
      5 C5          0.8850   -0.8640    0.6890 c3        1 R0_      0.147900
      6 C6          3.9840   -3.0690   -2.7370 c3        1 R0_      0.147900
      7 C7         -1.3300   -3.0330   -7.6350 c3        1 R0_      0.147900
      8 C8         -5.0640   -1.9090   -5.8320 c3        1 R0_      0.147900
      9 C9         -0.1420   -1.7590   -3.5320 c3        1 R0_      0.319900
     10 O1          2.0700   -1.2070   -0.0130 os        1 R0_     -0.484900
     11 O2          3.5540   -2.2560   -1.6570 os        1 R0_     -0.484900
     12 O3         -2.4080   -2.3190   -7.0510 os        1 R0_     -0.484900
     13 O4         -3.8760   -1.3640   -5.2830 os        1 R0_     -0.484900
     14 P1          1.9600   -2.1010   -1.3670 p5        1 R0_      0.845700
     15 P2         -2.4750   -2.1760   -5.4330 p5        1 R0_      0.845700
     16 S1          1.0820   -3.8170   -1.0680 s         1 R0_     -0.416100
     17 S2         -2.5910   -3.8940   -4.5220 s         1 R0_     -0.416100
     18 S3          1.2360   -0.8080   -2.8610 ss        1 R0_     -0.423600
     19 S4         -0.9590   -0.8390   -4.8510 ss        1 R0_     -0.423600
     20 H1          1.9860    0.1590    2.2410 hc        1 R0_      0.055800
     21 H2          1.4800    1.2000    0.9160 hc        1 R0_      0.055800
     22 H3          0.2800    0.6500    2.1090 hc        1 R0_      0.055800
     23 H4          5.2660   -1.5290   -3.5370 hc        1 R0_      0.055800
     24 H5          6.0620   -2.5960   -2.3870 hc        1 R0_      0.055800
     25 H6          5.7120   -3.1800   -4.0320 hc        1 R0_      0.055800
     26 H7         -2.1120   -2.7710   -9.6310 hc        1 R0_      0.055800
     27 H8         -0.9860   -1.5150   -9.1300 hc        1 R0_      0.055800
     28 H9         -0.3680   -3.1260   -9.5690 hc        1 R0_      0.055800
     29 H10        -6.2980   -0.3770   -4.9410 hc        1 R0_      0.055800
     30 H11        -5.7360    0.0080   -6.5630 hc        1 R0_      0.055800
     31 H12        -7.0370   -1.1870   -6.3430 hc        1 R0_      0.055800
     32 H13         0.0710   -0.6510   -0.0110 h1        1 R0_      0.075900
     33 H14         0.5940   -1.7040    1.3270 h1        1 R0_      0.075900
     34 H15         4.0660   -4.1030   -2.3910 h1        1 R0_      0.075900
     35 H16         3.2660   -3.0280   -3.5620 h1        1 R0_      0.075900
     36 H17        -0.4010   -2.8410   -7.0900 h1        1 R0_      0.075900
     37 H18        -1.5480   -4.1050   -7.5940 h1        1 R0_      0.075900
     38 H19        -4.8730   -2.3280   -6.8240 h1        1 R0_      0.075900
     39 H20        -5.4280   -2.7050   -5.1750 h1        1 R0_      0.075900
     40 H21        -0.8630   -1.9700   -2.7390 h2        1 R0_      0.095700
     41 H22         0.2330   -2.7050   -3.9280 h2        1 R0_      0.095700
@<TRIPOS>BOND
     1    1    5 1   
     2    2    6 1   
     3    3    7 1   
     4    4    8 1   
     5    5   10 1   
     6    6   11 1   
     7    7   12 1   
     8    8   13 1   
     9    9   18 1   
    10    9   19 1   
    11   10   14 1   
    12   11   14 1   
    13   12   15 1   
    14   13   15 1   
    15   14   16 2   
    16   14   18 1   
    17   15   17 2   
    18   15   19 1   
    19    1   20 1   
    20    1   21 1   
    21    1   22 1   
    22    2   23 1   
    23    2   24 1   
    24    2   25 1   
    25    3   26 1   
    26    3   27 1   
    27    3   28 1   
    28    4   29 1   
    29    4   30 1   
    30    4   31 1   
    31    5   32 1   
    32    5   33 1   
    33    6   34 1   
    34    6   35 1   
    35    7   36 1   
    36    7   37 1   
    37    8   38 1   
    38    8   39 1   
    39    9   40 1   
    40    9   41 1   
@<TRIPOS>SUBSTRUCTURE
     1 R0_         1 TEMP              0 ****  ****    0 ROOT
