@<TRIPOS>MOLECULE
SAMPL4_019
   26    28     1     0     0
SMALL
bcc


@<TRIPOS>ATOM
      1 C1          1.3820   -0.3500    0.2050 ca        1 TMP     -0.130000
      2 C2          1.7170   -1.5750   -0.3650 ca        1 TMP     -0.130000
      3 C3          7.8280   -0.2370    3.7420 ca        1 TMP     -0.130000
      4 C4          8.1630   -1.4610    3.1710 ca        1 TMP     -0.130000
      5 C5          2.1890    0.1970    1.2020 ca        1 TMP     -0.127000
      6 C6          2.8590   -2.2520    0.0600 ca        1 TMP     -0.127000
      7 C7          6.5400    0.2740    3.5890 ca        1 TMP     -0.127000
      8 C8          7.2090   -2.1750    2.4470 ca        1 TMP     -0.127000
      9 C9          3.3470   -0.4700    1.6290 ca        1 TMP     -0.069300
     10 C10         3.6850   -1.7050    1.0540 ca        1 TMP     -0.069300
     11 C11         5.5760   -0.4300    2.8520 ca        1 TMP     -0.069300
     12 C12         5.9130   -1.6660    2.2760 ca        1 TMP     -0.069300
     13 C13         4.1810    0.1310    2.7320 c3        1 TMP      0.008200
     14 C14         4.8930   -2.4780    1.5180 c3        1 TMP      0.008200
     15 H1          0.4890    0.1760   -0.1210 ha        1 TMP      0.131000
     16 H2          1.0860   -2.0060   -1.1370 ha        1 TMP      0.131000
     17 H3          8.5680    0.3180    4.3120 ha        1 TMP      0.131000
     18 H4          9.1650   -1.8630    3.2940 ha        1 TMP      0.131000
     19 H5          1.9100    1.1490    1.6460 ha        1 TMP      0.130000
     20 H6          3.1020   -3.2130   -0.3870 ha        1 TMP      0.130000
     21 H7          6.2890    1.2270    4.0490 ha        1 TMP      0.130000
     22 H8          7.4810   -3.1360    2.0160 ha        1 TMP      0.130000
     23 H9          4.2600    1.2110    2.5550 hc        1 TMP      0.060700
     24 H10         3.6610   -0.0250    3.6860 hc        1 TMP      0.060700
     25 H11         4.5550   -3.2980    2.1630 hc        1 TMP      0.060700
     26 H12         5.3850   -2.9100    0.6370 hc        1 TMP      0.060700
@<TRIPOS>BOND
     1    1    2 ar  
     2    1    5 ar  
     3    2    6 ar  
     4    3    4 ar  
     5    3    7 ar  
     6    4    8 ar  
     7    5    9 ar  
     8    6   10 ar  
     9    7   11 ar  
    10    8   12 ar  
    11    9   10 ar  
    12    9   13 1   
    13   10   14 1   
    14   11   12 ar  
    15   11   13 1   
    16   12   14 1   
    17    1   15 1   
    18    2   16 1   
    19    3   17 1   
    20    4   18 1   
    21    5   19 1   
    22    6   20 1   
    23    7   21 1   
    24    8   22 1   
    25   13   23 1   
    26   13   24 1   
    27   14   25 1   
    28   14   26 1   
@<TRIPOS>SUBSTRUCTURE
     1 TMP         1 TEMP              0 ****  ****    0 ROOT
