@<TRIPOS>MOLECULE
dimethyl_disulfide@0
   10     9     1     0     0
SMALL
No Charge or Current Charge


@<TRIPOS>ATOM
      1 C1         -0.1960   -1.3970    0.8960 c3        1 UNK     -0.047100
      2 C2          2.3380   -3.1020    2.8900 c3        1 UNK     -0.047100
      3 S1          1.5430   -0.9090    1.0000 ss        1 UNK     -0.095000
      4 S2          1.9800   -1.3300    2.9640 ss        1 UNK     -0.095000
      5 H1         -0.3120   -2.4650    1.0990 h1        1 UNK      0.047400
      6 H2         -0.5600   -1.2000   -0.1160 h1        1 UNK      0.047400
      7 H3         -0.8020   -0.8160    1.5960 h1        1 UNK      0.047400
      8 H4          1.4600   -3.6620    2.5590 h1        1 UNK      0.047400
      9 H5          2.6090   -3.4520    3.8900 h1        1 UNK      0.047400
     10 H6          3.1790   -3.2970    2.2200 h1        1 UNK      0.047400
@<TRIPOS>BOND
     1    1    3 1   
     2    1    5 1   
     3    1    6 1   
     4    1    7 1   
     5    2    4 1   
     6    2    8 1   
     7    2    9 1   
     8    2   10 1   
     9    3    4 1   
@<TRIPOS>SUBSTRUCTURE
     1 UNK         1 TEMP              0 ****  ****    0 ROOT
