@<TRIPOS>MOLECULE
ZINC01597767
    9     9     0     0     0
SMALL
USER_CHARGES
no name
@<TRIPOS>ATOM
      1 C1         -5.3596   -6.2797   -1.6463 C.2       1 <0>        -0.1500
      2 C2         -4.4750   -5.6362   -2.5593 C.2       1 <0>        -0.1500
      3 C3         -3.2664   -5.3249   -1.9760 C.2       1 <0>        -0.1100
      4 S1         -3.2016   -5.8078   -0.3345 S.3       1 <0>        -0.0800
      5 C4         -4.7932   -6.4356   -0.4002 C.2       1 <0>        -0.1100
      6 H1         -6.3604   -6.6115   -1.8909 H         1 <0>         0.1500
      7 H2         -4.7128   -5.4130   -3.5913 H         1 <0>         0.1500
      8 H3         -2.4179   -4.8370   -2.4348 H         1 <0>         0.1500
      9 H4         -5.2375   -6.8881    0.4752 H         1 <0>         0.1500
@<TRIPOS>BOND
     1    1    5 2
     2    1    2 1
     3    1    6 1
     4    2    3 2
     5    2    7 1
     6    3    4 1
     7    3    8 1
     8    4    5 1
     9    5    9 1
