@<TRIPOS>MOLECULE
d-glucose
   24    24     1     0     0
SMALL
No Charge or Current Charge


@<TRIPOS>ATOM
      1 C1         -1.4240   -1.4910   -0.6420 c3        1 DGL      0.071900
      2 C2         -0.7390   -0.1330   -0.8000 c3        1 DGL      0.084300
      3 C3         -0.4800   -2.6340   -1.0160 c3        1 DGL      0.088200
      4 C4         -0.0640   -0.0220   -2.1700 c3        1 DGL      0.080700
      5 C5          0.2030   -2.3730   -2.3590 c3        1 DGL      0.319300
      6 C6          0.7250    1.2760   -2.3060 c3        1 DGL      0.138200
      7 O1          0.8520   -1.1030   -2.3510 os        1 DGL     -0.464400
      8 O2         -1.8480   -1.6520    0.7120 oh        1 DGL     -0.569500
      9 O3         -1.7100    0.9020   -0.6670 oh        1 DGL     -0.575100
     10 O4         -1.2210   -3.8520   -1.0860 oh        1 DGL     -0.558200
     11 O5          1.1670   -3.4050   -2.5670 oh        1 DGL     -0.580600
     12 O6          1.3270    1.3050   -3.5870 oh        1 DGL     -0.593300
     13 H1         -2.3370   -1.5300   -1.2480 h1        1 DGL      0.076000
     14 H2          0.0000    0.0020   -0.0010 h1        1 DGL      0.091300
     15 H3          0.2720   -2.7730   -0.2310 h1        1 DGL      0.106600
     16 H4         -0.8140   -0.0420   -2.9720 h1        1 DGL      0.054800
     17 H5         -0.5170   -2.4240   -3.1850 h2        1 DGL      0.036600
     18 H6          1.5010    1.3220   -1.5420 h1        1 DGL      0.043500
     19 H7          0.0560    2.1310   -2.2030 h1        1 DGL      0.091800
     20 H8         -1.0490   -1.6000    1.2570 ho        1 DGL      0.411800
     21 H9         -2.3640    0.7580   -1.3690 ho        1 DGL      0.409400
     22 H10        -1.8990   -3.7220   -1.7660 ho        1 DGL      0.400800
     23 H11         1.5860   -3.2200   -3.4210 ho        1 DGL      0.427600
     24 H12         1.8230    2.1390   -3.6510 ho        1 DGL      0.408000
@<TRIPOS>BOND
     1    1    2 1   
     2    1    3 1   
     3    1    8 1   
     4    2    4 1   
     5    2    9 1   
     6    3    5 1   
     7    3   10 1   
     8    4    6 1   
     9    4    7 1   
    10    5    7 1   
    11    5   11 1   
    12    6   12 1   
    13    1   13 1   
    14    2   14 1   
    15    3   15 1   
    16    4   16 1   
    17    5   17 1   
    18    6   18 1   
    19    6   19 1   
    20    8   20 1   
    21    9   21 1   
    22   10   22 1   
    23   11   23 1   
    24   12   24 1   
@<TRIPOS>SUBSTRUCTURE
     1 DGL         1 TEMP              0 ****  ****    0 ROOT
