@<TRIPOS>MOLECULE
nitroethane
   10     9     1     0     0
SMALL
No Charge or Current Charge


@<TRIPOS>ATOM
      1 C1         -0.0400    0.6660    0.8690 c3        1 R0_     -0.108800
      2 C2          0.4810   -0.0190    2.1110 c3        1 R0_     -0.073300
      3 N1          1.8780   -0.4080    1.8630 no        1 R0_      0.227200
      4 O1          2.0900   -1.5390    1.3910 o         1 R0_     -0.210000
      5 O2          2.7630    0.4260    2.1260 o         1 R0_     -0.210000
      6 H1          0.5470    1.5600    0.6300 hc        1 R0_      0.063100
      7 H2          0.0000    0.0000   -0.0000 hc        1 R0_      0.063100
      8 H3         -1.0810    0.9730    1.0140 hc        1 R0_      0.063100
      9 H4         -0.0660   -0.9360    2.3390 h1        1 R0_      0.092800
     10 H5          0.4870    0.6450    2.9780 h1        1 R0_      0.092800
@<TRIPOS>BOND
     1    1    2 1   
     2    2    3 1   
     3    3    4 1   
     4    3    5 1   
     5    1    6 1   
     6    1    7 1   
     7    1    8 1   
     8    2    9 1   
     9    2   10 1   
@<TRIPOS>SUBSTRUCTURE
     1 R0_         1 TEMP              0 ****  ****    0 ROOT
