@<TRIPOS>MOLECULE
12_dichlorobenzene
   12    12     1     0     0
SMALL
No Charge or Current Charge


@<TRIPOS>ATOM
      1 C1          1.8850   -1.0380   -0.1090 ca        1 R0_     -0.121400
      2 C2          0.8180   -0.4410    0.5630 ca        1 R0_     -0.121400
      3 C3          2.9350   -1.6040    0.6140 ca        1 R0_     -0.117500
      4 C4          0.8010   -0.4100    1.9570 ca        1 R0_     -0.117500
      5 C5          2.9180   -1.5730    2.0080 ca        1 R0_      0.017500
      6 C6          1.8510   -0.9770    2.6800 ca        1 R0_      0.017500
      7 Cl1         4.2490   -2.2910    2.8470 cl        1 R0_     -0.070600
      8 Cl2         1.7700   -0.9090    4.4060 cl        1 R0_     -0.070600
      9 H1          1.8980   -1.0610   -1.1950 ha        1 R0_      0.140900
     10 H2          0.0000   -0.0010   -0.0000 ha        1 R0_      0.140900
     11 H3          3.7590   -2.0640    0.0740 ha        1 R0_      0.151100
     12 H4         -0.0390    0.0590    2.4640 ha        1 R0_      0.151100
@<TRIPOS>BOND
     1    1    2 ar  
     2    1    3 ar  
     3    2    4 ar  
     4    3    5 ar  
     5    4    6 ar  
     6    5    6 ar  
     7    5    7 1   
     8    6    8 1   
     9    1    9 1   
    10    2   10 1   
    11    3   11 1   
    12    4   12 1   
@<TRIPOS>SUBSTRUCTURE
     1 R0_         1 TEMP              0 ****  ****    0 ROOT
