@<TRIPOS>MOLECULE
LEU 
   14    13     1     0     0
SMALL
No Charge or Current Charge


@<TRIPOS>ATOM
      1 C1         -0.3000    0.2800   -1.4500 c3        1 LEU       0.0000
      2 H1         0.2800   -0.5200   -1.9200 hc        1 LEU       0.0000
      3 H2        -1.3600    0.1900   -1.6700 hc        1 LEU       0.0000
      4 H3        -0.0200    1.2700   -1.7900 hc        1 LEU       0.0000
      5 C4         -0.0800    0.2800    0.0600 c3        1 LEU       0.0000
      6 H5         -0.5400    1.1400    0.5400 hc        1 LEU       0.0000
      7 C1        -0.9100   -0.8600    0.6500 c3        1 LEU       0.0000
      8 H1        -0.9800   -1.0200    1.7200 hc        1 LEU       0.0000
      9 H1         -0.7600   -1.8800    0.2700 hc        1 LEU       0.0000
     10 H2         -1.8700   -0.5900    0.2100 hc        1 LEU       0.0000
     11 C2         1.3800    0.3700    0.5100 c3        1 LEU       0.0000
     12 H2         1.4900   -0.3400    1.3300 hc        1 LEU       0.0000
     13 H3          1.7200    1.4000    0.6400 hc        1 LEU       0.0000
     14 H4          2.0700   -0.1500   -0.1500 hc        1 LEU       0.0000
@<TRIPOS>BOND
     1    1    2 1   
     2    1    3 1   
     3    1    4 1   
     4    1    5 1   
     5    5    6 1   
     6    5    7 1   
     7    5   11 1   
     8    7    8 1   
     9    7    9 1   
    10    7   10 1   
    11   11   12 1   
    12   11   13 1   
    13   11   14 1   
@<TRIPOS>SUBSTRUCTURE
     1 LEU         1 TEMP              0 ****  ****    0 ROOT
