@<TRIPOS>MOLECULE
n_propyl_formate
   14    13     1     0     0
SMALL
No Charge or Current Charge


@<TRIPOS>ATOM
      1 C1          2.6260   -1.8220    4.8000 c         1 R0_      0.628300
      2 C2         -0.0040   -0.6640    0.8700 c3        1 R0_     -0.090100
      3 C3          1.2440   -0.4430    1.7060 c3        1 R0_     -0.094500
      4 C4          1.2750   -1.3490    2.9270 c3        1 R0_      0.134200
      5 O1          1.8770   -2.6810    5.2390 o         1 R0_     -0.534400
      6 O2          2.4570   -1.0810    3.6690 os        1 R0_     -0.445900
      7 H1          3.5700   -1.5250    5.2820 h5        1 R0_      0.074300
      8 H2         -0.9070   -0.4560    1.4520 hc        1 R0_      0.036700
      9 H3          0.0000    0.0000   -0.0000 hc        1 R0_      0.036700
     10 H4         -0.0570   -1.6960    0.5090 hc        1 R0_      0.036700
     11 H5          1.2990    0.6050    2.0240 hc        1 R0_      0.053200
     12 H6          2.1380   -0.6190    1.0950 hc        1 R0_      0.053200
     13 H7          0.4100   -1.1650    3.5720 h1        1 R0_      0.055800
     14 H8          1.2800   -2.4040    2.6320 h1        1 R0_      0.055800
@<TRIPOS>BOND
     1    1    5 2   
     2    1    6 1   
     3    2    3 1   
     4    3    4 1   
     5    4    6 1   
     6    1    7 1   
     7    2    8 1   
     8    2    9 1   
     9    2   10 1   
    10    3   11 1   
    11    3   12 1   
    12    4   13 1   
    13    4   14 1   
@<TRIPOS>SUBSTRUCTURE
     1 R0_         1 TEMP              0 ****  ****    0 ROOT
