@<TRIPOS>MOLECULE
ethyl_propanoate
   17    16     1     0     0
SMALL
No Charge or Current Charge


@<TRIPOS>ATOM
      1 C1         -2.0710    1.2980    2.4500 c         1 R0_      0.630600
      2 C2         -0.8820    0.5300    0.3730 c3        1 R0_     -0.089200
      3 C3         -2.8770    1.8000    5.9870 c3        1 R0_     -0.113200
      4 C4         -0.8820    0.5510    1.8920 c3        1 R0_     -0.125100
      5 C5         -3.0830    1.9320    4.4930 c3        1 R0_      0.139400
      6 O1         -2.9380    1.8440    1.7810 o         1 R0_     -0.541700
      7 O2         -2.0160    1.2610    3.8140 os        1 R0_     -0.445400
      8 H1         -0.8510    1.5460   -0.0340 hc        1 R0_      0.046100
      9 H2         -0.0090   -0.0150    0.0000 hc        1 R0_      0.046100
     10 H3         -1.7820    0.0420   -0.0130 hc        1 R0_      0.046100
     11 H4         -3.6770    2.3040    6.5360 hc        1 R0_      0.047000
     12 H5         -2.8540    0.7460    6.2820 hc        1 R0_      0.047000
     13 H6         -1.9170    2.2360    6.2830 hc        1 R0_      0.047000
     14 H7          0.0310    1.0390    2.2480 hc        1 R0_      0.075300
     15 H8         -0.9100   -0.4770    2.2680 hc        1 R0_      0.075300
     16 H9         -3.0830    2.9850    4.1960 h1        1 R0_      0.057500
     17 H10        -4.0320    1.4760    4.1940 h1        1 R0_      0.057500
@<TRIPOS>BOND
     1    1    4 1   
     2    1    6 2   
     3    1    7 1   
     4    2    4 1   
     5    3    5 1   
     6    5    7 1   
     7    2    8 1   
     8    2    9 1   
     9    2   10 1   
    10    3   11 1   
    11    3   12 1   
    12    3   13 1   
    13    4   14 1   
    14    4   15 1   
    15    5   16 1   
    16    5   17 1   
@<TRIPOS>SUBSTRUCTURE
     1 R0_         1 TEMP              0 ****  ****    0 ROOT
