@<TRIPOS>MOLECULE
tert_butylbenzene
   24    24     1     0     0
SMALL
No Charge or Current Charge


@<TRIPOS>ATOM
      1 C1         -2.1380   -2.7710    3.5730 ca        1 R0_     -0.133700
      2 C2         -0.9810   -2.0190    3.3700 ca        1 R0_     -0.129800
      3 C3         -3.2800   -2.5130    2.8140 ca        1 R0_     -0.129800
      4 C4         -0.9660   -1.0090    2.4080 ca        1 R0_     -0.128500
      5 C5         -3.2650   -1.5020    1.8530 ca        1 R0_     -0.128500
      6 C6         -2.1080   -0.7840    1.6810 ca        1 R0_     -0.054800
      7 C7         -1.0060    0.0250   -0.4340 c3        1 R0_     -0.082600
      8 C8         -1.7780    1.6830    1.2950 c3        1 R0_     -0.082600
      9 C9         -3.4290    0.4950   -0.1340 c3        1 R0_     -0.082600
     10 C10        -2.0900    0.3300    0.6220 c3        1 R0_     -0.019900
     11 H1         -2.1510   -3.5580    4.3220 ha        1 R0_      0.129800
     12 H2         -0.0920   -2.2210    3.9610 ha        1 R0_      0.129200
     13 H3         -4.1810   -3.0980    2.9730 ha        1 R0_      0.129200
     14 H4         -0.0590   -0.4280    2.2570 ha        1 R0_      0.131800
     15 H5         -4.1590   -1.3080    1.2660 ha        1 R0_      0.131800
     16 H6         -0.9950    0.7880   -1.2210 hc        1 R0_      0.035700
     17 H7          0.0000    0.0000    0.0000 hc        1 R0_      0.035700
     18 H8         -1.1820   -0.9450   -0.9120 hc        1 R0_      0.035700
     19 H9         -0.7880    1.6940    1.7650 hc        1 R0_      0.035700
     20 H10        -1.7940    2.5020    0.5660 hc        1 R0_      0.035700
     21 H11        -2.5140    1.9160    2.0740 hc        1 R0_      0.035700
     22 H12        -3.3660    1.2990   -0.8770 hc        1 R0_      0.035700
     23 H13        -3.7040   -0.4190   -0.6720 hc        1 R0_      0.035700
     24 H14        -4.2480    0.7500    0.5480 hc        1 R0_      0.035700
@<TRIPOS>BOND
     1    1    2 ar  
     2    1    3 ar  
     3    2    4 ar  
     4    3    5 ar  
     5    4    6 ar  
     6    5    6 ar  
     7    6   10 1   
     8    7   10 1   
     9    8   10 1   
    10    9   10 1   
    11    1   11 1   
    12    2   12 1   
    13    3   13 1   
    14    4   14 1   
    15    5   15 1   
    16    7   16 1   
    17    7   17 1   
    18    7   18 1   
    19    8   19 1   
    20    8   20 1   
    21    8   21 1   
    22    9   22 1   
    23    9   23 1   
    24    9   24 1   
@<TRIPOS>SUBSTRUCTURE
     1 R0_         1 TEMP              0 ****  ****    0 ROOT
