@<TRIPOS>MOLECULE
propan_1_ol
   12    11     1     0     0
SMALL
No Charge or Current Charge


@<TRIPOS>ATOM
      1 C1         -0.0040   -0.6640    0.8700 c3        1 R0_     -0.088800
      2 C2          1.2440   -0.4430    1.7060 c3        1 R0_     -0.104000
      3 C3          1.2750   -1.3490    2.9270 c3        1 R0_      0.130600
      4 O1          2.4570   -1.0810    3.6690 oh        1 R0_     -0.601100
      5 H1         -0.9070   -0.4560    1.4520 hc        1 R0_      0.036100
      6 H2          0.0000    0.0000   -0.0000 hc        1 R0_      0.036100
      7 H3         -0.0570   -1.6960    0.5090 hc        1 R0_      0.036100
      8 H4          1.2990    0.6050    2.0240 hc        1 R0_      0.044300
      9 H5          2.1380   -0.6190    1.0950 hc        1 R0_      0.044300
     10 H6          0.4100   -1.1650    3.5720 h1        1 R0_      0.034800
     11 H7          1.2800   -2.4040    2.6320 h1        1 R0_      0.034800
     12 H8          3.1750   -0.9750    3.0230 ho        1 R0_      0.397200
@<TRIPOS>BOND
     1    1    2 1   
     2    2    3 1   
     3    3    4 1   
     4    1    5 1   
     5    1    6 1   
     6    1    7 1   
     7    2    8 1   
     8    2    9 1   
     9    3   10 1   
    10    3   11 1   
    11    4   12 1   
@<TRIPOS>SUBSTRUCTURE
     1 R0_         1 TEMP              0 ****  ****    0 ROOT
