@<TRIPOS>MOLECULE
N_methylmorpholine
   18    18     1     0     0
SMALL
No Charge or Current Charge


@<TRIPOS>ATOM
      1 C1          0.3520    0.2580   -1.0070 c3        1 R0_      0.123800
      2 C2         -1.2150   -1.2330   -2.0650 c3        1 R0_      0.123800
      3 C3         -0.4560    1.4390   -1.5390 c3        1 R0_      0.110300
      4 C4         -1.9850   -0.0170   -2.5730 c3        1 R0_      0.110300
      5 C5          0.9620   -2.0410   -1.4120 c3        1 R0_      0.147400
      6 N1          0.2060   -0.8930   -1.9090 n3        1 R0_     -0.710200
      7 O1         -1.8310    1.0800   -1.6720 os        1 R0_     -0.417200
      8 H1          1.4070    0.5490   -0.9350 h1        1 R0_      0.051700
      9 H2          0.0020   -0.0030   -0.0000 h1        1 R0_      0.051700
     10 H3         -1.6330   -1.5570   -1.1030 h1        1 R0_      0.051700
     11 H4         -1.3310   -2.0560   -2.7790 h1        1 R0_      0.051700
     12 H5         -0.3960    2.2770   -0.8380 h1        1 R0_      0.051700
     13 H6         -0.0730    1.7870   -2.5060 h1        1 R0_      0.051700
     14 H7         -1.6550    0.2810   -3.5750 h1        1 R0_      0.051700
     15 H8         -3.0530   -0.2510   -2.6320 h1        1 R0_      0.051700
     16 H9          0.8070   -2.1670   -0.3370 h1        1 R0_      0.032800
     17 H10         2.0300   -1.8980   -1.5970 h1        1 R0_      0.032800
     18 H11         0.6430   -2.9530   -1.9230 h1        1 R0_      0.032800
@<TRIPOS>BOND
     1    1    3 1   
     2    1    6 1   
     3    2    4 1   
     4    2    6 1   
     5    3    7 1   
     6    4    7 1   
     7    5    6 1   
     8    1    8 1   
     9    1    9 1   
    10    2   10 1   
    11    2   11 1   
    12    3   12 1   
    13    3   13 1   
    14    4   14 1   
    15    4   15 1   
    16    5   16 1   
    17    5   17 1   
    18    5   18 1   
@<TRIPOS>SUBSTRUCTURE
     1 R0_         1 TEMP              0 ****  ****    0 ROOT
