@<TRIPOS>MOLECULE
TMP 
   13    13     1     0     0
SMALL
bcc


@<TRIPOS>ATOM
      1 C1         26.6760    5.5420    3.3280 ca        1 TMP      -0.1566
      2 C2         27.4690    6.6640    3.5940 ca        1 TMP       0.1229
      3 C3         25.9730    4.9200    4.3660 ca        1 TMP      -0.0971
      4 C4         27.5590    7.1650    4.8980 ca        1 TMP      -0.2132
      5 O5         28.1580    7.2730    2.5770 oh        1 TMP      -0.4988
      6 C6         26.0620    5.4200    5.6700 ca        1 TMP      -0.1655
      7 C7         26.8560    6.5420    5.9360 ca        1 TMP      -0.0917
      8 H1         26.6080    5.1630    2.3380 ha        1 TMP       0.1497
      9 H2         25.3710    4.0680    4.1640 ha        1 TMP       0.1339
     10 H3         28.1610    8.0150    5.1000 ha        1 TMP       0.1326
     11 H4         25.5290    4.9480    6.4570 ha        1 TMP       0.1333
     12 H5         26.9240    6.9220    6.9250 ha        1 TMP       0.1321
     13 H6         29.0750    7.4850    2.8810 ho        1 TMP       0.4183
@<TRIPOS>BOND
     1    1    2 ar  
     2    1    3 ar  
     3    1    8 1   
     4    2    4 ar  
     5    2    5 1   
     6    3    6 ar  
     7    3    9 1   
     8    4    7 ar  
     9    4   10 1   
    10    5   13 1   
    11    6    7 ar  
    12    6   11 1   
    13    7   12 1   
@<TRIPOS>SUBSTRUCTURE
     1 TMP         1 TEMP              0 ****  ****    0 ROOT
