@<TRIPOS>MOLECULE
1_chlorobutane
   14    13     1     0     0
SMALL
No Charge or Current Charge


@<TRIPOS>ATOM
      1 C1         -0.1170    0.5380    0.9460 c3        1 R0_     -0.091700
      2 C2          0.5890   -0.2070    2.0670 c3        1 R0_     -0.079100
      3 C3          0.4430    0.5210    3.4030 c3        1 R0_     -0.087400
      4 C4          1.1230   -0.2520    4.5250 c3        1 R0_      0.042200
      5 Cl1         0.9570    0.6190    6.0680 cl        1 R0_     -0.202800
      6 H1          0.2990    1.5430    0.8190 hc        1 R0_      0.034400
      7 H2          0.0000    0.0000    0.0000 hc        1 R0_      0.034400
      8 H3         -1.1880    0.6340    1.1520 hc        1 R0_      0.034400
      9 H4          1.6510   -0.3130    1.8150 hc        1 R0_      0.042800
     10 H5          0.1720   -1.2180    2.1460 hc        1 R0_      0.042800
     11 H6          0.8810    1.5240    3.3230 hc        1 R0_      0.052600
     12 H7         -0.6220    0.6510    3.6340 hc        1 R0_      0.052600
     13 H8          2.1920   -0.3750    4.3280 h1        1 R0_      0.062300
     14 H9          0.6750   -1.2410    4.6520 h1        1 R0_      0.062300
@<TRIPOS>BOND
     1    1    2 1   
     2    2    3 1   
     3    3    4 1   
     4    4    5 1   
     5    1    6 1   
     6    1    7 1   
     7    1    8 1   
     8    2    9 1   
     9    2   10 1   
    10    3   11 1   
    11    3   12 1   
    12    4   13 1   
    13    4   14 1   
@<TRIPOS>SUBSTRUCTURE
     1 R0_         1 TEMP              0 ****  ****    0 ROOT
