@<TRIPOS>MOLECULE
naproxen
   31    32     1     0     0
SMALL
No Charge or Current Charge


@<TRIPOS>ATOM
      1 C1         -0.0480   -3.3540    0.5450 ca        1 NAP     -0.126800
      2 C2          3.4210   -2.9900   -0.7270 ca        1 NAP     -0.078600
      3 C3         -0.4970   -2.0340    0.4940 ca        1 NAP     -0.106400
      4 C4          3.8690   -4.3100   -0.6760 ca        1 NAP     -0.186000
      5 C5          1.6480   -1.3370   -0.3660 ca        1 NAP     -0.083400
      6 C6          1.7240   -5.0070    0.1850 ca        1 NAP     -0.162500
      7 C7          2.1170   -2.6600   -0.3220 ca        1 NAP     -0.069200
      8 C8          1.2560   -3.6840    0.1400 ca        1 NAP      0.001200
      9 C9          0.3500   -1.0280    0.0390 ca        1 NAP     -0.107700
     10 C10         3.0230   -5.3170   -0.2210 ca        1 NAP      0.127700
     11 C11         0.6620    1.3120    0.9120 c         1 NAP      0.640000
     12 C12        -0.1410    0.9820   -1.4360 c3        1 NAP     -0.090700
     13 C13         4.7990   -6.8510   -0.6030 c3        1 NAP      0.113900
     14 C14        -0.1310    0.3830   -0.0140 c3        1 NAP     -0.053900
     15 O1          1.6050    0.9540    1.6070 o         1 NAP     -0.552900
     16 O2          0.2090    2.5930    0.8990 oh        1 NAP     -0.605800
     17 O3          3.4620   -6.6040   -0.1730 os        1 NAP     -0.327600
     18 H1         -0.7270   -4.1250    0.9040 ha        1 NAP      0.136900
     19 H2          4.1000   -2.2190   -1.0860 ha        1 NAP      0.138400
     20 H3         -1.5090   -1.8020    0.8120 ha        1 NAP      0.134300
     21 H4          4.8810   -4.5450   -0.9930 ha        1 NAP      0.139200
     22 H5          2.3000   -0.5400   -0.7200 ha        1 NAP      0.150900
     23 H6          1.0750   -5.8060    0.5380 ha        1 NAP      0.151200
     24 H7          0.8620    0.9900   -1.8770 hc        1 NAP      0.056100
     25 H8         -0.7990    0.4020   -2.0920 hc        1 NAP      0.052900
     26 H9         -0.4950    2.0180   -1.4390 hc        1 NAP      0.044200
     27 H10         5.0210   -7.9170   -0.5140 h1        1 NAP      0.067400
     28 H11         5.4930   -6.2710    0.0100 h1        1 NAP      0.033900
     29 H12         4.8980   -6.5470   -1.6480 h1        1 NAP      0.033000
     30 H13        -1.1770    0.4170    0.3470 hc        1 NAP      0.086800
     31 H14         0.6890    3.2150    1.4860 ho        1 NAP      0.443500
@<TRIPOS>BOND
     1    1    3 ar  
     2    1    8 ar  
     3    2    4 ar  
     4    2    7 ar  
     5    3    9 ar  
     6    4   10 ar  
     7    5    7 ar  
     8    5    9 ar  
     9    6    8 ar  
    10    6   10 ar  
    11    7    8 ar  
    12    9   14 1   
    13   10   17 1   
    14   11   14 1   
    15   11   15 2   
    16   11   16 1   
    17   12   14 1   
    18   13   17 1   
    19    1   18 1   
    20    2   19 1   
    21    3   20 1   
    22    4   21 1   
    23    5   22 1   
    24    6   23 1   
    25   12   24 1   
    26   12   25 1   
    27   12   26 1   
    28   13   27 1   
    29   13   28 1   
    30   13   29 1   
    31   14   30 1   
    32   16   31 1   
@<TRIPOS>SUBSTRUCTURE
     1 NAP         1 TEMP              0 ****  ****    0 ROOT
