@<TRIPOS>MOLECULE
2_methoxyethanolJG@337
   13    12     1     0     0
SMALL
No Charge or Current Charge


@<TRIPOS>ATOM
      1 C1         -4.3670   -0.3730   -0.1950 c3        1 UNK      0.117800
      2 C2         -0.9940    0.8440    0.6400 c3        1 UNK      0.111200
      3 C3         -2.4970    0.6780    0.7830 c3        1 UNK      0.190800
      4 O1         -0.7190    1.6300   -0.5140 oh        1 UNK     -0.600000
      5 O2         -2.9630   -0.1690   -0.2700 os        1 UNK     -0.421200
      6 H1         -4.6340   -0.8590    0.7490 h1        1 UNK      0.033300
      7 H2         -4.6650   -1.0250   -1.0200 h1        1 UNK      0.033300
      8 H3         -4.8990    0.5790   -0.2920 h1        1 UNK      0.033300
      9 H4         -0.5000   -0.1260    0.5170 h1        1 UNK     -0.002600
     10 H5         -0.5820    1.3590    1.5120 h1        1 UNK     -0.002600
     11 H6         -2.9970    1.6500    0.7100 h1        1 UNK      0.051200
     12 H7         -2.7280    0.2130    1.7470 h1        1 UNK      0.051200
     13 H8          0.2470    1.7230   -0.5720 ho        1 UNK      0.404300
@<TRIPOS>BOND
     1    1    5 1   
     2    1    6 1   
     3    1    7 1   
     4    1    8 1   
     5    2    3 1   
     6    2    4 1   
     7    2    9 1   
     8    2   10 1   
     9    3    5 1   
    10    3   11 1   
    11    3   12 1   
    12    4   13 1   
@<TRIPOS>SUBSTRUCTURE
     1 UNK         1 TEMP              0 ****  ****    0 ROOT
