@<TRIPOS>MOLECULE
bencl.xyz
   15    15     1     0     0
SMALL
No Charge or Current Charge


@<TRIPOS>ATOM
      1 C1         -0.0230    2.4020   -0.0040 ca        1 <0>     -0.116100
      2 C2          1.3640    2.4110   -0.0030 ca        1 <0>     -0.129300
      3 C3         -0.7040    1.1940   -0.0030 ca        1 <0>     -0.129300
      4 C4          2.0660    1.2150    0.0000 ca        1 <0>     -0.105700
      5 C5          0.0000    0.0000    0.0000 ca        1 <0>     -0.105700
      6 C6          1.3900    0.0000    0.0000 ca        1 <0>     -0.103600
      7 C7          2.1520   -1.2950    0.0100 c3        1 <0>      0.106000
      8 Cl1         2.5070   -1.9020   -1.6570 cl        1 <0>     -0.212300
      9 H1         -0.5680    3.3290   -0.0050 ha        1 <0>      0.131400
     10 H2          1.8980    3.3450   -0.0030 ha        1 <0>      0.132500
     11 H3         -1.7800    1.1810   -0.0030 ha        1 <0>      0.132500
     12 H4          3.1420    1.2280   -0.0030 ha        1 <0>      0.132400
     13 H5         -0.5340   -0.9340   -0.0030 ha        1 <0>      0.132400
     14 H6          3.1110   -1.1890    0.4920 h1        1 <0>      0.067400
     15 H7          1.5950   -2.0810    0.4940 h1        1 <0>      0.067400
@<TRIPOS>BOND
     1    1    2 ar  
     2    1    3 ar  
     3    2    4 ar  
     4    3    5 ar  
     5    4    6 ar  
     6    5    6 ar  
     7    6    7 1   
     8    7    8 1   
     9    1    9 1   
    10    2   10 1   
    11    3   11 1   
    12    4   12 1   
    13    5   13 1   
    14    7   14 1   
    15    7   15 1   
@<TRIPOS>SUBSTRUCTURE
     1 <0>         1 TEMP              0 ****  ****    0 ROOT
