@<TRIPOS>MOLECULE
35_dimethylpyridine
   17    17     1     0     0
SMALL
No Charge or Current Charge


@<TRIPOS>ATOM
      1 C1          1.6140   -0.1640    1.4250 ca        1 R0_     -0.098700
      2 C2         -0.4940   -1.2320    1.6990 ca        1 R0_      0.387000
      3 C3          1.1130   -1.5150    3.3170 ca        1 R0_      0.387000
      4 C4          0.3360   -0.4210    0.9410 ca        1 R0_     -0.177700
      5 C5          2.0180   -0.7180    2.6350 ca        1 R0_     -0.177700
      6 C6         -0.1260    0.1570   -0.3500 c3        1 R0_     -0.056700
      7 C7          3.3780   -0.4620    3.1790 c3        1 R0_     -0.056700
      8 N1         -0.1370   -1.7870    2.8780 nb        1 R0_     -0.659500
      9 H1          2.2950    0.4680    0.8590 ha        1 R0_      0.137100
     10 H2         -1.5020   -1.4670    1.3720 h4        1 R0_      0.020800
     11 H3          1.3710   -1.9740    4.2660 h4        1 R0_      0.020800
     12 H4         -0.6330   -0.6070   -0.9550 hc        1 R0_      0.045800
     13 H5         -0.8240    0.9900   -0.1910 hc        1 R0_      0.045800
     14 H6          0.7140    0.5580   -0.9350 hc        1 R0_      0.045800
     15 H7          3.4340    0.5430    3.6190 hc        1 R0_      0.045800
     16 H8          3.6450   -1.1930    3.9550 hc        1 R0_      0.045800
     17 H9          4.1460   -0.5390    2.3970 hc        1 R0_      0.045800
@<TRIPOS>BOND
     1    1    4 ar  
     2    1    5 ar  
     3    2    4 ar  
     4    2    8 ar  
     5    3    5 ar  
     6    3    8 ar  
     7    4    6 1   
     8    5    7 1   
     9    1    9 1   
    10    2   10 1   
    11    3   11 1   
    12    6   12 1   
    13    6   13 1   
    14    6   14 1   
    15    7   15 1   
    16    7   16 1   
    17    7   17 1   
@<TRIPOS>SUBSTRUCTURE
     1 R0_         1 TEMP              0 ****  ****    0 ROOT
