@<TRIPOS>MOLECULE
Z_pent_2_ene
   15    14     1     0     0
SMALL
No Charge or Current Charge


@<TRIPOS>ATOM
      1 C1          1.5640   -0.6620    1.2360 c2        1 R0_     -0.173400
      2 C2          0.8260    0.2890    0.6460 c2        1 R0_     -0.172200
      3 C3          1.3210   -2.1260    1.0700 c3        1 R0_     -0.059400
      4 C4          0.1010   -0.1220   -1.7060 c3        1 R0_     -0.087300
      5 C5         -0.3380    0.0010   -0.2560 c3        1 R0_     -0.045500
      6 H1          2.3930   -0.3770    1.8780 ha        1 R0_      0.117100
      7 H2          1.0600    1.3350    0.8250 ha        1 R0_      0.116400
      8 H3          2.2080   -2.6040    0.6420 hc        1 R0_      0.038900
      9 H4          0.4710   -2.3340    0.4120 hc        1 R0_      0.038900
     10 H5          1.1190   -2.5830    2.0430 hc        1 R0_      0.038900
     11 H6         -0.7640   -0.3190   -2.3480 hc        1 R0_      0.033000
     12 H7          0.8120   -0.9460   -1.8360 hc        1 R0_      0.033000
     13 H8          0.5780    0.7990   -2.0570 hc        1 R0_      0.033000
     14 H9         -1.0640    0.8170   -0.1630 hc        1 R0_      0.044200
     15 H10        -0.8530   -0.9190    0.0450 hc        1 R0_      0.044200
@<TRIPOS>BOND
     1    1    2 2   
     2    1    3 1   
     3    2    5 1   
     4    4    5 1   
     5    1    6 1   
     6    2    7 1   
     7    3    8 1   
     8    3    9 1   
     9    3   10 1   
    10    4   11 1   
    11    4   12 1   
    12    4   13 1   
    13    5   14 1   
    14    5   15 1   
@<TRIPOS>SUBSTRUCTURE
     1 R0_         1 TEMP              0 ****  ****    0 ROOT
