@<TRIPOS>MOLECULE
ethyl_formate
   11    10     1     0     0
SMALL
No Charge or Current Charge


@<TRIPOS>ATOM
      1 C1          2.1980    2.3850   -2.2390 c         1 R0_      0.624900
      2 C2          1.0620   -0.2680   -0.0010 c3        1 R0_     -0.114700
      3 C3          1.9100    0.9130   -0.4220 c3        1 R0_      0.134700
      4 O1          3.1000    3.0130   -1.7070 o         1 R0_     -0.513500
      5 O2          1.5170    1.3240   -1.7230 os        1 R0_     -0.440600
      6 H1          1.8050    2.6060   -3.2440 h5        1 R0_      0.057000
      7 H2          1.3400   -0.6110    1.0000 hc        1 R0_      0.049000
      8 H3          0.0000    0.0000    0.0000 hc        1 R0_      0.049000
      9 H4          1.1800   -1.0990   -0.7040 hc        1 R0_      0.049000
     10 H5          2.9680    0.6360   -0.4450 h1        1 R0_      0.052600
     11 H6          1.7730    1.7500    0.2690 h1        1 R0_      0.052600
@<TRIPOS>BOND
     1    1    4 2   
     2    1    5 1   
     3    2    3 1   
     4    3    5 1   
     5    1    6 1   
     6    2    7 1   
     7    2    8 1   
     8    2    9 1   
     9    3   10 1   
    10    3   11 1   
@<TRIPOS>SUBSTRUCTURE
     1 R0_         1 TEMP              0 ****  ****    0 ROOT
