@<TRIPOS>MOLECULE
SAMPL4_001
   26    25     1     0     0
SMALL
bcc


@<TRIPOS>ATOM
      1 C1          0.2790   -0.8740    1.4860 c3        1 TMP      0.115900
      2 C2          1.2290   -1.5520   -3.1280 c3        1 TMP      0.115900
      3 C3          1.1630   -1.7450    0.5960 c3        1 TMP      0.079600
      4 C4          0.1590   -0.9170   -2.2410 c3        1 TMP      0.079600
      5 C5          0.3820   -2.6670   -0.3630 c3        1 TMP      0.136600
      6 C6         -0.5630   -1.9130   -1.3130 c3        1 TMP      0.136600
      7 O1          1.1140   -0.0980    2.3410 oh        1 TMP     -0.604800
      8 O2          1.8050   -0.5580   -3.9730 oh        1 TMP     -0.604800
      9 O3          1.9500   -2.5690    1.4650 oh        1 TMP     -0.611800
     10 O4         -0.8140   -0.3300   -3.1140 oh        1 TMP     -0.611800
     11 O5         -0.3830   -3.6070    0.3910 oh        1 TMP     -0.586800
     12 O6         -1.2830   -2.8640   -2.0960 oh        1 TMP     -0.586800
     13 H1         -0.3750   -1.4760    2.1210 h1        1 TMP      0.052700
     14 H2         -0.3240   -0.1790    0.8930 h1        1 TMP      0.052700
     15 H3          0.8020   -2.3180   -3.7830 h1        1 TMP      0.052700
     16 H4          2.0390   -1.9980   -2.5460 h1        1 TMP      0.052700
     17 H5          1.8700   -1.1170    0.0430 h1        1 TMP      0.057700
     18 H6          0.5920   -0.0920   -1.6640 h1        1 TMP      0.057700
     19 H7          1.1120   -3.2400   -0.9460 h1        1 TMP      0.058700
     20 H8         -1.3020   -1.3530   -0.7280 h1        1 TMP      0.058700
     21 H9          0.5230    0.4410    2.8890 ho        1 TMP      0.413500
     22 H10         2.4730   -1.0080   -4.5130 ho        1 TMP      0.413500
     23 H11         2.4680   -1.9620    2.0130 ho        1 TMP      0.419000
     24 H12        -1.4840    0.0680   -2.5400 ho        1 TMP      0.419000
     25 H13         0.2510   -4.1160    0.9200 ho        1 TMP      0.417500
     26 H14        -1.9210   -2.3590   -2.6230 ho        1 TMP      0.417500
@<TRIPOS>BOND
     1    1    3 1   
     2    1    7 1   
     3    2    4 1   
     4    2    8 1   
     5    3    5 1   
     6    3    9 1   
     7    4    6 1   
     8    4   10 1   
     9    5    6 1   
    10    5   11 1   
    11    6   12 1   
    12    1   13 1   
    13    1   14 1   
    14    2   15 1   
    15    2   16 1   
    16    3   17 1   
    17    4   18 1   
    18    5   19 1   
    19    6   20 1   
    20    7   21 1   
    21    8   22 1   
    22    9   23 1   
    23   10   24 1   
    24   11   25 1   
    25   12   26 1   
@<TRIPOS>SUBSTRUCTURE
     1 TMP         1 TEMP              0 ****  ****    0 ROOT
