@<TRIPOS>MOLECULE
225_trimethylhexane
   29    28     1     0     0
SMALL
No Charge or Current Charge


@<TRIPOS>ATOM
      1 C1         -2.4690    0.4890   -2.1350 c3        1 R0_     -0.086700
      2 C2         -0.7790    0.2460   -0.3070 c3        1 R0_     -0.086700
      3 C3          2.0240    3.4770   -2.4220 c3        1 R0_     -0.083100
      4 C4          0.4810    3.5970   -4.3840 c3        1 R0_     -0.083100
      5 C5          0.1740    5.1530   -2.4420 c3        1 R0_     -0.083100
      6 C6         -0.0450    1.2040   -2.5130 c3        1 R0_     -0.071300
      7 C7         -0.3320    2.6690   -2.1510 c3        1 R0_     -0.066500
      8 C8         -0.9990    0.2080   -1.8220 c3        1 R0_     -0.066800
      9 C9          0.5650    3.7240   -2.8540 c3        1 R0_     -0.054800
     10 H1         -2.6880    0.3340   -3.1960 hc        1 R0_      0.031900
     11 H2         -2.7400    1.5190   -1.8770 hc        1 R0_      0.031900
     12 H3         -3.1230   -0.1840   -1.5700 hc        1 R0_      0.031900
     13 H4         -1.0040    1.2370    0.1020 hc        1 R0_      0.031900
     14 H5         -1.4200   -0.4830    0.1990 hc        1 R0_      0.031900
     15 H6          0.2600    0.0040   -0.0580 hc        1 R0_      0.031900
     16 H7          2.1360    3.5700   -1.3350 hc        1 R0_      0.032500
     17 H8          2.3570    2.4730   -2.7080 hc        1 R0_      0.032500
     18 H9          2.7050    4.1980   -2.8880 hc        1 R0_      0.032500
     19 H10         0.7110    2.5760   -4.7080 hc        1 R0_      0.032500
     20 H11        -0.5160    3.8530   -4.7570 hc        1 R0_      0.032500
     21 H12         1.1930    4.2700   -4.8750 hc        1 R0_      0.032500
     22 H13         0.1700    5.2630   -1.3520 hc        1 R0_      0.032500
     23 H14        -0.8190    5.4270   -2.8120 hc        1 R0_      0.032500
     24 H15         0.8810    5.8870   -2.8470 hc        1 R0_      0.032500
     25 H16         0.9890    0.9520   -2.2520 hc        1 R0_      0.038700
     26 H17        -0.1420    1.0710   -3.5960 hc        1 R0_      0.038700
     27 H18        -0.2220    2.7920   -1.0660 hc        1 R0_      0.038700
     28 H19        -1.3840    2.8870   -2.3800 hc        1 R0_      0.038700
     29 H20        -0.7610   -0.8060   -2.1690 hc        1 R0_      0.043500
@<TRIPOS>BOND
     1    1    8 1   
     2    2    8 1   
     3    3    9 1   
     4    4    9 1   
     5    5    9 1   
     6    6    7 1   
     7    6    8 1   
     8    7    9 1   
     9    1   10 1   
    10    1   11 1   
    11    1   12 1   
    12    2   13 1   
    13    2   14 1   
    14    2   15 1   
    15    3   16 1   
    16    3   17 1   
    17    3   18 1   
    18    4   19 1   
    19    4   20 1   
    20    4   21 1   
    21    5   22 1   
    22    5   23 1   
    23    5   24 1   
    24    6   25 1   
    25    6   26 1   
    26    7   27 1   
    27    7   28 1   
    28    8   29 1   
@<TRIPOS>SUBSTRUCTURE
     1 R0_         1 TEMP              0 ****  ****    0 ROOT
