@<TRIPOS>MOLECULE
pentan_1_ol
   18    17     1     0     0
SMALL
No Charge or Current Charge


@<TRIPOS>ATOM
      1 C1          0.8190   -0.3800    0.6690 c3        1 R0_     -0.089900
      2 C2          1.6190   -1.4420   -0.0690 c3        1 R0_     -0.077900
      3 C3          2.2940   -0.8690   -1.3150 c3        1 R0_     -0.074800
      4 C4          3.1240   -1.9290   -2.0350 c3        1 R0_     -0.112400
      5 C5          3.8340   -1.3560   -3.2530 c3        1 R0_      0.129800
      6 O1          4.5960   -2.3860   -3.8660 oh        1 R0_     -0.600700
      7 H1          1.4640    0.4430    0.9930 hc        1 R0_      0.032100
      8 H2          0.0300    0.0320    0.0310 hc        1 R0_      0.032100
      9 H3          0.3460   -0.8110    1.5570 hc        1 R0_      0.032100
     10 H4          0.9510   -2.2640   -0.3520 hc        1 R0_      0.038000
     11 H5          2.3750   -1.8560    0.6070 hc        1 R0_      0.038000
     12 H6          1.5320   -0.4730   -1.9970 hc        1 R0_      0.042700
     13 H7          2.9390   -0.0290   -1.0290 hc        1 R0_      0.042700
     14 H8          2.4840   -2.7640   -2.3470 hc        1 R0_      0.044800
     15 H9          3.8660   -2.3600   -1.3510 hc        1 R0_      0.044800
     16 H10         4.5110   -0.5460   -2.9660 h1        1 R0_      0.040800
     17 H11         3.1120   -0.9760   -3.9830 h1        1 R0_      0.040800
     18 H12         4.9130   -2.9640   -3.1530 ho        1 R0_      0.396800
@<TRIPOS>BOND
     1    1    2 1   
     2    2    3 1   
     3    3    4 1   
     4    4    5 1   
     5    5    6 1   
     6    1    7 1   
     7    1    8 1   
     8    1    9 1   
     9    2   10 1   
    10    2   11 1   
    11    3   12 1   
    12    3   13 1   
    13    4   14 1   
    14    4   15 1   
    15    5   16 1   
    16    5   17 1   
    17    6   18 1   
@<TRIPOS>SUBSTRUCTURE
     1 R0_         1 TEMP              0 ****  ****    0 ROOT
