@<TRIPOS>MOLECULE
methane
    5     4     0     0     0
SMALL
NO_CHARGES

@<TRIPOS>ATOM
      1 C1         -0.0000   -0.0001    0.0000 C.3       1 <0>         0.0000
      2 H1          0.5541    0.7996    0.4965 H         1 <0>         0.0000
      3 H2          0.6833   -0.8134   -0.2537 H         1 <0>         0.0000
      4 H3         -0.7782   -0.3735    0.6693 H         1 <0>         0.0000
      5 H4         -0.4591    0.3873   -0.9121 H         1 <0>         0.0000
@<TRIPOS>BOND
     1    1    2 1
     2    1    3 1
     3    1    4 1
     4    1    5 1
@<TRIPOS>MOLECULE
ethane
    8     7     0     0     0
SMALL
NO_CHARGES

@<TRIPOS>ATOM
      1 C1          0.8151   -0.5383    0.4928 C.3       1 <0>         0.0000
      2 C2          2.1548   -0.0516   -0.0117 C.3       1 <0>         0.0000
      3 H1          0.0001    0.0007    0.0006 H         1 <0>         0.0000
      4 H2          0.6931   -1.6067    0.2906 H         1 <0>         0.0000
      5 H3          0.7303   -0.3800    1.5721 H         1 <0>         0.0000
      6 H4          2.9698   -0.5906    0.4805 H         1 <0>         0.0000
      7 H5          2.2767    1.0166    0.1908 H         1 <0>         0.0000
      8 H6          2.2396   -0.2097   -1.0909 H         1 <0>         0.0000
@<TRIPOS>BOND
     1    1    2 1
     2    1    3 1
     3    1    4 1
     4    1    5 1
     5    2    6 1
     6    2    7 1
     7    2    8 1
@<TRIPOS>MOLECULE
propane
   11    10     0     0     0
SMALL
NO_CHARGES

@<TRIPOS>ATOM
      1 C1         -0.5532   -0.2786    0.9029 C.3       1 <0>         0.0000
      2 C2          1.1307    0.8191    2.3889 C.3       1 <0>         0.0000
      3 C3          0.3849   -0.4425    2.0870 C.3       1 <0>         0.0000
      4 H1         -0.0029    0.0213    0.0052 H         1 <0>         0.0000
      5 H2         -1.0709   -1.2172    0.6798 H         1 <0>         0.0000
      6 H3         -1.3062    0.4865    1.1149 H         1 <0>         0.0000
      7 H4          1.7106    1.1284    1.5113 H         1 <0>         0.0000
      8 H5          1.8273    0.6691    3.2205 H         1 <0>         0.0000
      9 H6          0.4377    1.6289    2.6406 H         1 <0>         0.0000
     10 H7         -0.1907   -0.7423    2.9698 H         1 <0>         0.0000
     11 H8          1.1014   -1.2443    1.8766 H         1 <0>         0.0000
@<TRIPOS>BOND
     1    1    3 1
     2    2    3 1
     3    1    4 1
     4    1    5 1
     5    1    6 1
     6    2    7 1
     7    2    8 1
     8    2    9 1
     9    3   10 1
    10    3   11 1
@<TRIPOS>MOLECULE
n-butane
   14    13     0     0     0
SMALL
NO_CHARGES

@<TRIPOS>ATOM
      1 C1          0.4048   -0.7298    0.7083 C.3       1 <0>         0.0000
      2 C2          2.5420    1.6208    2.9190 C.3       1 <0>         0.0000
      3 C3          1.6372   -0.1820    1.4100 C.3       1 <0>         0.0000
      4 C4          1.3160    1.0885    2.1945 C.3       1 <0>         0.0000
      5 H1         -0.0187    0.0118    0.0234 H         1 <0>         0.0000
      6 H2          0.6479   -1.6293    0.1339 H         1 <0>         0.0000
      7 H3         -0.3638   -0.9927    1.4420 H         1 <0>         0.0000
      8 H4          2.9465    0.8722    3.6077 H         1 <0>         0.0000
      9 H5          2.2823    2.5118    3.4994 H         1 <0>         0.0000
     10 H6          3.3288    1.8955    2.2091 H         1 <0>         0.0000
     11 H7          2.0358   -0.9470    2.0866 H         1 <0>         0.0000
     12 H8          2.4129    0.0268    0.6640 H         1 <0>         0.0000
     13 H9          0.9367    1.8604    1.5146 H         1 <0>         0.0000
     14 H10         0.5258    0.8846    2.9266 H         1 <0>         0.0000
@<TRIPOS>BOND
     1    1    3 1
     2    2    4 1
     3    3    4 1
     4    1    5 1
     5    1    6 1
     6    1    7 1
     7    2    8 1
     8    2    9 1
     9    2   10 1
    10    3   11 1
    11    3   12 1
    12    4   13 1
    13    4   14 1
@<TRIPOS>MOLECULE
2-methylpopane
   14    13     0     0     0
SMALL
NO_CHARGES

@<TRIPOS>ATOM
      1 C1          0.6623   -0.3793   -0.7853 C.3       1 <0>         0.0000
      2 C2         -0.0690    1.4478   -2.3443 C.3       1 <0>         0.0000
      3 C3          1.0050   -0.6288   -3.2598 C.3       1 <0>         0.0000
      4 C4          0.1007   -0.0597   -2.1688 C.3       1 <0>         0.0000
      5 H1          1.6514    0.0694   -0.6429 H         1 <0>         0.0000
      6 H2          0.0013    0.0023   -0.0000 H         1 <0>         0.0000
      7 H3          0.7580   -1.4612   -0.6452 H         1 <0>         0.0000
      8 H4          0.8912    1.9690   -2.2639 H         1 <0>         0.0000
      9 H5         -0.7401    1.8548   -1.5807 H         1 <0>         0.0000
     10 H6         -0.4985    1.6788   -3.3249 H         1 <0>         0.0000
     11 H7          2.0076   -0.1898   -3.2157 H         1 <0>         0.0000
     12 H8          0.5901   -0.4267   -4.2530 H         1 <0>         0.0000
     13 H9          1.1058   -1.7142   -3.1540 H         1 <0>         0.0000
     14 H10        -0.8858   -0.5306   -2.2580 H         1 <0>         0.0000
@<TRIPOS>BOND
     1    1    4 1
     2    2    4 1
     3    3    4 1
     4    1    5 1
     5    1    6 1
     6    1    7 1
     7    2    8 1
     8    2    9 1
     9    2   10 1
    10    3   11 1
    11    3   12 1
    12    3   13 1
    13    4   14 1
@<TRIPOS>MOLECULE
n-pentane
   17    16     0     0     0
SMALL
NO_CHARGES

@<TRIPOS>ATOM
      1 C1         -0.5107    0.9380   -0.3444 C.3       1 <0>         0.0000
      2 C2          2.1551    1.0346   -4.6202 C.3       1 <0>         0.0000
      3 C3         -0.5701    0.9512   -1.8635 C.3       1 <0>         0.0000
      4 C4          0.7651    0.9996   -4.0051 C.3       1 <0>         0.0000
      5 C5          0.8290    0.9520   -2.4788 C.3       1 <0>         0.0000
      6 H1          0.0418    1.8038    0.0342 H         1 <0>         0.0000
      7 H2         -0.0200    0.0302    0.0211 H         1 <0>         0.0000
      8 H3         -1.5214    0.9701    0.0747 H         1 <0>         0.0000
      9 H4          2.7208    1.9007   -4.2624 H         1 <0>         0.0000
     10 H5          2.0857    1.1010   -5.7105 H         1 <0>         0.0000
     11 H6          2.7176    0.1293   -4.3701 H         1 <0>         0.0000
     12 H7         -1.1285    0.0735   -2.2091 H         1 <0>         0.0000
     13 H8         -1.1229    1.8383   -2.1939 H         1 <0>         0.0000
     14 H9          0.2266    0.1226   -4.3831 H         1 <0>         0.0000
     15 H10         0.2071    1.8866   -4.3270 H         1 <0>         0.0000
     16 H11         1.3706    0.0525   -2.1614 H         1 <0>         0.0000
     17 H12         1.3933    1.8162   -2.1076 H         1 <0>         0.0000
@<TRIPOS>BOND
     1    1    3 1
     2    2    4 1
     3    3    5 1
     4    4    5 1
     5    1    6 1
     6    1    7 1
     7    1    8 1
     8    2    9 1
     9    2   10 1
    10    2   11 1
    11    3   12 1
    12    3   13 1
    13    4   14 1
    14    4   15 1
    15    5   16 1
    16    5   17 1
@<TRIPOS>MOLECULE
2-methylbutane
   17    16     0     0     0
SMALL
NO_CHARGES

@<TRIPOS>ATOM
      1 C1         -0.2303   -0.8989   -0.6919 C.3       1 <0>         0.0000
      2 C2          2.6687   -1.6484   -1.3707 C.3       1 <0>         0.0000
      3 C3          2.5201   -0.0904   -3.3235 C.3       1 <0>         0.0000
      4 C4          0.4312   -0.6227   -2.0345 C.3       1 <0>         0.0000
      5 C5          1.9539   -0.4226   -1.9410 C.3       1 <0>         0.0000
      6 H1         -0.0096   -0.0869    0.0086 H         1 <0>         0.0000
      7 H2          0.1395   -1.8322   -0.2555 H         1 <0>         0.0000
      8 H3         -1.3179   -0.9661   -0.7858 H         1 <0>         0.0000
      9 H4          2.4988   -2.5328   -1.9939 H         1 <0>         0.0000
     10 H5          2.3250   -1.8742   -0.3567 H         1 <0>         0.0000
     11 H6          3.7492   -1.4768   -1.3156 H         1 <0>         0.0000
     12 H7          2.3476   -0.9086   -4.0310 H         1 <0>         0.0000
     13 H8          3.5990    0.0895   -3.2696 H         1 <0>         0.0000
     14 H9          2.0524    0.8131   -3.7291 H         1 <0>         0.0000
     15 H10         0.2003   -1.4445   -2.7233 H         1 <0>         0.0000
     16 H11        -0.0236    0.2810   -2.4589 H         1 <0>         0.0000
     17 H12         2.1567    0.4305   -1.2810 H         1 <0>         0.0000
@<TRIPOS>BOND
     1    1    4 1
     2    2    5 1
     3    3    5 1
     4    4    5 1
     5    1    6 1
     6    1    7 1
     7    1    8 1
     8    2    9 1
     9    2   10 1
    10    2   11 1
    11    3   12 1
    12    3   13 1
    13    3   14 1
    14    4   15 1
    15    4   16 1
    16    5   17 1
@<TRIPOS>MOLECULE
2,2-dimethylpropane
   17    16     0     0     0
SMALL
NO_CHARGES

@<TRIPOS>ATOM
      1 C1         -0.6138   -0.1246    0.8990 C.3       1 <0>         0.0000
      2 C2          1.1851    0.8592    2.3421 C.3       1 <0>         0.0000
      3 C3          1.1078   -1.6156    1.9474 C.3       1 <0>         0.0000
      4 C4         -0.6372   -0.5188    3.3750 C.3       1 <0>         0.0000
      5 C5          0.2605   -0.3499    2.1409 C.3       1 <0>         0.0000
      6 H1         -1.2862   -0.9729    0.7289 H         1 <0>         0.0000
      7 H2         -1.2316    0.7738    1.0075 H         1 <0>         0.0000
      8 H3          0.0000   -0.0004   -0.0001 H         1 <0>         0.0000
      9 H4          1.8231    0.7275    3.2232 H         1 <0>         0.0000
     10 H5          0.6080    1.7800    2.4832 H         1 <0>         0.0000
     11 H6          1.8396    1.0056    1.4756 H         1 <0>         0.0000
     12 H7          1.7442   -1.8033    2.8195 H         1 <0>         0.0000
     13 H8          0.4743   -2.4976    1.8010 H         1 <0>         0.0000
     14 H9          1.7605   -1.5250    1.0719 H         1 <0>         0.0000
     15 H10        -0.0405   -0.6817    4.2795 H         1 <0>         0.0000
     16 H11        -1.3101   -1.3760    3.2607 H         1 <0>         0.0000
     17 H12        -1.2556    0.3709    3.5395 H         1 <0>         0.0000
@<TRIPOS>BOND
     1    1    5 1
     2    2    5 1
     3    3    5 1
     4    4    5 1
     5    1    6 1
     6    1    7 1
     7    1    8 1
     8    2    9 1
     9    2   10 1
    10    2   11 1
    11    3   12 1
    12    3   13 1
    13    3   14 1
    14    4   15 1
    15    4   16 1
    16    4   17 1
@<TRIPOS>MOLECULE
n-hexane
   20    19     0     0     0
SMALL
NO_CHARGES

@<TRIPOS>ATOM
      1 C1         -0.7259   -0.7465   -0.3392 C.3       1 <0>         0.0000
      2 C2         -3.1254   -2.6785   -5.9027 C.3       1 <0>         0.0000
      3 C3         -0.8325   -0.7252   -1.8556 C.3       1 <0>         0.0000
      4 C4         -3.0189   -2.7003   -4.3862 C.3       1 <0>         0.0000
      5 C5         -1.8736   -1.7251   -2.3579 C.3       1 <0>         0.0000
      6 C6         -1.9540   -1.7248   -3.8854 C.3       1 <0>         0.0000
      7 H1         -1.6901   -0.5165    0.1253 H         1 <0>         0.0000
      8 H2          0.0009   -0.0018    0.0003 H         1 <0>         0.0000
      9 H3         -0.3980   -1.7283    0.0171 H         1 <0>         0.0000
     10 H4         -3.3675   -1.6741   -6.2648 H         1 <0>         0.0000
     11 H5         -2.1852   -2.9940   -6.3665 H         1 <0>         0.0000
     12 H6         -3.9143   -3.3596   -6.2369 H         1 <0>         0.0000
     13 H7          0.1473   -0.9587   -2.2881 H         1 <0>         0.0000
     14 H8         -1.0991    0.2864   -2.1832 H         1 <0>         0.0000
     15 H9         -2.7762   -3.7176   -4.0576 H         1 <0>         0.0000
     16 H10        -3.9927   -2.4431   -3.9536 H         1 <0>         0.0000
     17 H11        -2.8557   -1.4750   -1.9383 H         1 <0>         0.0000
     18 H12        -1.6177   -2.7312   -2.0036 H         1 <0>         0.0000
     19 H13        -0.9783   -1.9988   -4.3048 H         1 <0>         0.0000
     20 H14        -2.1860   -0.7135   -4.2409 H         1 <0>         0.0000
@<TRIPOS>BOND
     1    1    3 1
     2    2    4 1
     3    3    5 1
     4    4    6 1
     5    5    6 1
     6    1    7 1
     7    1    8 1
     8    1    9 1
     9    2   10 1
    10    2   11 1
    11    2   12 1
    12    3   13 1
    13    3   14 1
    14    4   15 1
    15    4   16 1
    16    5   17 1
    17    5   18 1
    18    6   19 1
    19    6   20 1
@<TRIPOS>MOLECULE
2-methylpentane
   20    19     0     0     0
SMALL
NO_CHARGES

@<TRIPOS>ATOM
      1 C1          0.8222   -0.2572   -0.6038 C.3       1 <0>         0.0000
      2 C2          2.2230    2.3984   -3.8121 C.3       1 <0>         0.0000
      3 C3          0.8472    4.2720   -2.8863 C.3       1 <0>         0.0000
      4 C4          0.8430    0.4612   -1.9447 C.3       1 <0>         0.0000
      5 C5          0.8300    1.9809   -1.7632 C.3       1 <0>         0.0000
      6 C6          0.9223    2.7580   -3.0895 C.3       1 <0>         0.0000
      7 H1         -0.0619    0.0224   -0.0220 H         1 <0>         0.0000
      8 H2          0.8147   -1.3432   -0.7412 H         1 <0>         0.0000
      9 H3          1.7096    0.0054   -0.0195 H         1 <0>         0.0000
     10 H4          3.0935    2.6799   -3.2102 H         1 <0>         0.0000
     11 H5          2.2969    2.9119   -4.7769 H         1 <0>         0.0000
     12 H6          2.2811    1.3204   -3.9964 H         1 <0>         0.0000
     13 H7          1.6629    4.6278   -2.2478 H         1 <0>         0.0000
     14 H8          0.9162    4.7962   -3.8457 H         1 <0>         0.0000
     15 H9         -0.1006    4.5660   -2.4256 H         1 <0>         0.0000
     16 H10         1.7384    0.1594   -2.5000 H         1 <0>         0.0000
     17 H11        -0.0273    0.1387   -2.5258 H         1 <0>         0.0000
     18 H12        -0.0790    2.2753   -1.2230 H         1 <0>         0.0000
     19 H13         1.6784    2.2658   -1.1276 H         1 <0>         0.0000
     20 H14         0.0863    2.4562   -3.7332 H         1 <0>         0.0000
@<TRIPOS>BOND
     1    1    4 1
     2    2    6 1
     3    3    6 1
     4    4    5 1
     5    5    6 1
     6    1    7 1
     7    1    8 1
     8    1    9 1
     9    2   10 1
    10    2   11 1
    11    2   12 1
    12    3   13 1
    13    3   14 1
    14    3   15 1
    15    4   16 1
    16    4   17 1
    17    5   18 1
    18    5   19 1
    19    6   20 1
@<TRIPOS>MOLECULE
3-methylpentane
   20    19     0     0     0
SMALL
NO_CHARGES

@<TRIPOS>ATOM
      1 C1          0.3901   -0.9757   -0.3684 C.3       1 <0>         0.0000
      2 C2         -1.2993   -4.9745   -3.1039 C.3       1 <0>         0.0000
      3 C3          0.5423   -3.9826   -0.8792 C.3       1 <0>         0.0000
      4 C4         -0.7741   -1.8070   -0.8892 C.3       1 <0>         0.0000
      5 C5         -1.6015   -3.7656   -2.2290 C.3       1 <0>         0.0000
      6 C6         -0.3423   -3.0436   -1.7051 C.3       1 <0>         0.0000
      7 H1          1.0451   -1.5739    0.2727 H         1 <0>         0.0000
      8 H2          0.9872   -0.6019   -1.2067 H         1 <0>         0.0000
      9 H3          0.0443   -0.1076    0.1996 H         1 <0>         0.0000
     10 H4         -0.6693   -4.6766   -3.9484 H         1 <0>         0.0000
     11 H5         -2.2124   -5.4133   -3.5158 H         1 <0>         0.0000
     12 H6         -0.7654   -5.7453   -2.5392 H         1 <0>         0.0000
     13 H7          0.0075   -4.3578   -0.0004 H         1 <0>         0.0000
     14 H8          1.4493   -3.4772   -0.5348 H         1 <0>         0.0000
     15 H9          0.8720   -4.8428   -1.4692 H         1 <0>         0.0000
     16 H10        -1.3926   -1.1583   -1.5220 H         1 <0>         0.0000
     17 H11        -1.4026   -2.1143   -0.0443 H         1 <0>         0.0000
     18 H12        -2.2324   -4.0792   -1.3884 H         1 <0>         0.0000
     19 H13        -2.1967   -3.0617   -2.8239 H         1 <0>         0.0000
     20 H14         0.2398   -2.6982   -2.5696 H         1 <0>         0.0000
@<TRIPOS>BOND
     1    1    4 1
     2    2    5 1
     3    3    6 1
     4    4    6 1
     5    5    6 1
     6    1    7 1
     7    1    8 1
     8    1    9 1
     9    2   10 1
    10    2   11 1
    11    2   12 1
    12    3   13 1
    13    3   14 1
    14    3   15 1
    15    4   16 1
    16    4   17 1
    17    5   18 1
    18    5   19 1
    19    6   20 1
@<TRIPOS>MOLECULE
2,2-dimethylbutane
   20    19     0     0     0
SMALL
NO_CHARGES

@<TRIPOS>ATOM
      1 C1          0.5943    2.3290    0.6864 C.3       1 <0>         0.0000
      2 C2          1.4191    4.1125   -1.6700 C.3       1 <0>         0.0000
      3 C3          1.7283    2.0728   -3.0804 C.3       1 <0>         0.0000
      4 C4          3.1401    2.4150   -1.0370 C.3       1 <0>         0.0000
      5 C5          0.6586    1.9008   -0.7747 C.3       1 <0>         0.0000
      6 C6          1.7374    2.6049   -1.6377 C.3       1 <0>         0.0000
      7 H1          1.5528    2.1847    1.1926 H         1 <0>         0.0000
      8 H2          0.3479    3.3942    0.7486 H         1 <0>         0.0000
      9 H3         -0.1777    1.7821    1.2346 H         1 <0>         0.0000
     10 H4          1.4145    4.5376   -0.6599 H         1 <0>         0.0000
     11 H5          0.4360    4.3001   -2.1165 H         1 <0>         0.0000
     12 H6          2.1616    4.6634   -2.2586 H         1 <0>         0.0000
     13 H7          1.9493    1.0013   -3.1194 H         1 <0>         0.0000
     14 H8          0.7537    2.2338   -3.5546 H         1 <0>         0.0000
     15 H9          2.4829    2.5806   -3.6921 H         1 <0>         0.0000
     16 H10         3.4109    1.3541   -0.9938 H         1 <0>         0.0000
     17 H11         3.1884    2.8117   -0.0163 H         1 <0>         0.0000
     18 H12         3.9059    2.9351   -1.6216 H         1 <0>         0.0000
     19 H13        -0.3298    2.0706   -1.2218 H         1 <0>         0.0000
     20 H14         0.8242    0.8158   -0.8034 H         1 <0>         0.0000
@<TRIPOS>BOND
     1    1    5 1
     2    2    6 1
     3    3    6 1
     4    4    6 1
     5    5    6 1
     6    1    7 1
     7    1    8 1
     8    1    9 1
     9    2   10 1
    10    2   11 1
    11    2   12 1
    12    3   13 1
    13    3   14 1
    14    3   15 1
    15    4   16 1
    16    4   17 1
    17    4   18 1
    18    5   19 1
    19    5   20 1
@<TRIPOS>MOLECULE
2,3-dimethylbutane
   20    19     0     0     0
SMALL
NO_CHARGES

@<TRIPOS>ATOM
      1 C1          0.5108   -0.7952    0.5544 C.3       1 <0>         0.0000
      2 C2          0.2493    0.5315    2.6603 C.3       1 <0>         0.0000
      3 C3          1.2273   -2.3856    3.1709 C.3       1 <0>         0.0000
      4 C4          3.2006   -1.8542    1.7262 C.3       1 <0>         0.0000
      5 C5          1.2455   -0.2135    1.7653 C.3       1 <0>         0.0000
      6 C6          2.0681   -1.2569    2.5683 C.3       1 <0>         0.0000
      7 H1         -0.2170   -1.5576    0.8485 H         1 <0>         0.0000
      8 H2         -0.0356   -0.0068    0.0248 H         1 <0>         0.0000
      9 H3          1.2068   -1.2418   -0.1614 H         1 <0>         0.0000
     10 H4         -0.4890   -0.1644    3.0737 H         1 <0>         0.0000
     11 H5          0.7460    1.0231    3.5025 H         1 <0>         0.0000
     12 H6         -0.2956    1.2917    2.0911 H         1 <0>         0.0000
     13 H7          0.7183   -2.9652    2.3955 H         1 <0>         0.0000
     14 H8          1.8357   -3.0707    3.7697 H         1 <0>         0.0000
     15 H9          0.4525   -1.9750    3.8285 H         1 <0>         0.0000
     16 H10         2.8191   -2.4084    0.8628 H         1 <0>         0.0000
     17 H11         3.7982   -2.5494    2.3263 H         1 <0>         0.0000
     18 H12         3.8727   -1.0702    1.3620 H         1 <0>         0.0000
     19 H13         1.9519    0.5380    1.3867 H         1 <0>         0.0000
     20 H14         2.5440   -0.7248    3.4034 H         1 <0>         0.0000
@<TRIPOS>BOND
     1    1    5 1
     2    2    5 1
     3    3    6 1
     4    4    6 1
     5    5    6 1
     6    1    7 1
     7    1    8 1
     8    1    9 1
     9    2   10 1
    10    2   11 1
    11    2   12 1
    12    3   13 1
    13    3   14 1
    14    3   15 1
    15    4   16 1
    16    4   17 1
    17    4   18 1
    18    5   19 1
    19    6   20 1
@<TRIPOS>MOLECULE
n-heptane
   23    22     0     0     0
SMALL
NO_CHARGES

@<TRIPOS>ATOM
      1 C1          1.3979    1.0564   -1.8399 C.3       1 <0>         0.0000
      2 C2          5.1832   -4.2033    2.1255 C.3       1 <0>         0.0000
      3 C3          1.4696   -0.4058   -1.4280 C.3       1 <0>         0.0000
      4 C4          3.9722   -3.9278    1.2486 C.3       1 <0>         0.0000
      5 C5          2.6412   -0.7215   -0.4958 C.3       1 <0>         0.0000
      6 C6          3.8954   -2.4552    0.8462 C.3       1 <0>         0.0000
      7 C7          2.6940   -2.1886   -0.0635 C.3       1 <0>         0.0000
      8 H1          1.2955    1.6913   -0.9539 H         1 <0>         0.0000
      9 H2          0.5363    1.2402   -2.4894 H         1 <0>         0.0000
     10 H3          2.3033    1.3697   -2.3678 H         1 <0>         0.0000
     11 H4          6.1101   -3.9279    1.6123 H         1 <0>         0.0000
     12 H5          5.1270   -3.6376    3.0610 H         1 <0>         0.0000
     13 H6          5.2364   -5.2676    2.3749 H         1 <0>         0.0000
     14 H7          1.5717   -1.0173   -2.3325 H         1 <0>         0.0000
     15 H8          0.5257   -0.6979   -0.9535 H         1 <0>         0.0000
     16 H9          3.0633   -4.2137    1.7907 H         1 <0>         0.0000
     17 H10         4.0269   -4.5564    0.3522 H         1 <0>         0.0000
     18 H11         3.5720   -0.4682   -1.0184 H         1 <0>         0.0000
     19 H12         2.5908   -0.0762    0.3896 H         1 <0>         0.0000
     20 H13         3.8205   -1.8317    1.7455 H         1 <0>         0.0000
     21 H14         4.8192   -2.1675    0.3296 H         1 <0>         0.0000
     22 H15         1.7748   -2.4563    0.4695 H         1 <0>         0.0000
     23 H16         2.7555   -2.8311   -0.9502 H         1 <0>         0.0000
@<TRIPOS>BOND
     1    1    3 1
     2    2    4 1
     3    3    5 1
     4    4    6 1
     5    5    7 1
     6    6    7 1
     7    1    8 1
     8    1    9 1
     9    1   10 1
    10    2   11 1
    11    2   12 1
    12    2   13 1
    13    3   14 1
    14    3   15 1
    15    4   16 1
    16    4   17 1
    17    5   18 1
    18    5   19 1
    19    6   20 1
    20    6   21 1
    21    7   22 1
    22    7   23 1
@<TRIPOS>MOLECULE
2-methylhexane
   23    22     0     0     0
SMALL
NO_CHARGES

@<TRIPOS>ATOM
      1 C1         -0.5128    0.6356   -0.8556 C.3       1 <0>         0.0000
      2 C2         -4.1494    0.1528    3.0528 C.3       1 <0>         0.0000
      3 C3         -5.8514    1.8847    2.4493 C.3       1 <0>         0.0000
      4 C4         -1.5837    1.5479   -0.2789 C.3       1 <0>         0.0000
      5 C5         -2.6296    0.7568    0.5083 C.3       1 <0>         0.0000
      6 C6         -3.6835    1.6862    1.1179 C.3       1 <0>         0.0000
      7 C7         -4.7797    0.9408    1.9017 C.3       1 <0>         0.0000
      8 H1         -0.0168    0.0799   -0.0541 H         1 <0>         0.0000
      9 H2         -0.9477   -0.0881   -1.5521 H         1 <0>         0.0000
     10 H3          0.2483    1.2128   -1.3904 H         1 <0>         0.0000
     11 H4         -3.6456    0.8189    3.7615 H         1 <0>         0.0000
     12 H5         -4.9107   -0.4123    3.6010 H         1 <0>         0.0000
     13 H6         -3.4112   -0.5633    2.6763 H         1 <0>         0.0000
     14 H7         -5.4179    2.6262    3.1290 H         1 <0>         0.0000
     15 H8         -6.6152    1.3263    3.0015 H         1 <0>         0.0000
     16 H9         -6.3628    2.4182    1.6425 H         1 <0>         0.0000
     17 H10        -2.0684    2.0951   -1.0958 H         1 <0>         0.0000
     18 H11        -1.1094    2.2907    0.3729 H         1 <0>         0.0000
     19 H12        -3.1073    0.0337   -0.1618 H         1 <0>         0.0000
     20 H13        -2.1358    0.1876    1.3050 H         1 <0>         0.0000
     21 H14        -3.1816    2.3892    1.7954 H         1 <0>         0.0000
     22 H15        -4.1406    2.2891    0.3227 H         1 <0>         0.0000
     23 H16        -5.2661    0.2220    1.2298 H         1 <0>         0.0000
@<TRIPOS>BOND
     1    1    4 1
     2    2    7 1
     3    3    7 1
     4    4    5 1
     5    5    6 1
     6    6    7 1
     7    1    8 1
     8    1    9 1
     9    1   10 1
    10    2   11 1
    11    2   12 1
    12    2   13 1
    13    3   14 1
    14    3   15 1
    15    3   16 1
    16    4   17 1
    17    4   18 1
    18    5   19 1
    19    5   20 1
    20    6   21 1
    21    6   22 1
    22    7   23 1
@<TRIPOS>MOLECULE
3-methylhexane
   23    22     0     0     0
SMALL
NO_CHARGES

@<TRIPOS>ATOM
      1 C1          0.1004    0.8022   -0.9300 C.3       1 <0>         0.0000
      2 C2          3.5011    0.7120   -4.2305 C.3       1 <0>         0.0000
      3 C3          1.8580   -2.6901   -3.2926 C.3       1 <0>         0.0000
      4 C4          0.6694    0.1336   -2.1733 C.3       1 <0>         0.0000
      5 C5          2.6912   -0.5705   -4.3535 C.3       1 <0>         0.0000
      6 C6          1.9784   -0.5962   -1.8601 C.3       1 <0>         0.0000
      7 C7          2.5977   -1.3718   -3.0415 C.3       1 <0>         0.0000
      8 H1          0.8156    1.5138   -0.5051 H         1 <0>         0.0000
      9 H2         -0.1450    0.0606   -0.1632 H         1 <0>         0.0000
     10 H3         -0.8148    1.3485   -1.1791 H         1 <0>         0.0000
     11 H4          4.5094    0.5167   -3.8542 H         1 <0>         0.0000
     12 H5          3.0143    1.3966   -3.5283 H         1 <0>         0.0000
     13 H6          3.5824    1.2197   -5.1967 H         1 <0>         0.0000
     14 H7          0.8227   -2.5057   -3.5977 H         1 <0>         0.0000
     15 H8          2.3437   -3.2871   -4.0709 H         1 <0>         0.0000
     16 H9          1.8311   -3.2953   -2.3798 H         1 <0>         0.0000
     17 H10        -0.0747   -0.5675   -2.5654 H         1 <0>         0.0000
     18 H11         0.8321    0.9004   -2.9377 H         1 <0>         0.0000
     19 H12         1.6907   -0.3317   -4.7324 H         1 <0>         0.0000
     20 H13         3.1658   -1.1994   -5.1176 H         1 <0>         0.0000
     21 H14         2.7111    0.1269   -1.4813 H         1 <0>         0.0000
     22 H15         1.8036   -1.2996   -1.0351 H         1 <0>         0.0000
     23 H16         3.6214   -1.6353   -2.7416 H         1 <0>         0.0000
@<TRIPOS>BOND
     1    1    4 1
     2    2    5 1
     3    3    7 1
     4    4    6 1
     5    5    7 1
     6    6    7 1
     7    1    8 1
     8    1    9 1
     9    1   10 1
    10    2   11 1
    11    2   12 1
    12    2   13 1
    13    3   14 1
    14    3   15 1
    15    3   16 1
    16    4   17 1
    17    4   18 1
    18    5   19 1
    19    5   20 1
    20    6   21 1
    21    6   22 1
    22    7   23 1
@<TRIPOS>MOLECULE
2,2-dimethylpentane
   23    22     0     0     0
SMALL
NO_CHARGES

@<TRIPOS>ATOM
      1 C1         -2.7707    0.5868   -0.9961 C.3       1 <0>         0.0000
      2 C2          1.4938   -0.9342   -0.7653 C.3       1 <0>         0.0000
      3 C3          1.3944    1.2099    0.5305 C.3       1 <0>         0.0000
      4 C4          1.1544   -0.9797    1.7095 C.3       1 <0>         0.0000
      5 C5         -1.2484    0.5702   -0.9733 C.3       1 <0>         0.0000
      6 C6         -0.7212   -0.1852    0.2516 C.3       1 <0>         0.0000
      7 C7          0.8221   -0.2124    0.4145 C.3       1 <0>         0.0000
      8 H1         -3.1719    1.0499   -0.0890 H         1 <0>         0.0000
      9 H2         -3.1302    1.1594   -1.8569 H         1 <0>         0.0000
     10 H3         -3.1732   -0.4284   -1.0715 H         1 <0>         0.0000
     11 H4          1.1075   -1.9535   -0.8764 H         1 <0>         0.0000
     12 H5          1.3310   -0.4065   -1.7106 H         1 <0>         0.0000
     13 H6          2.5778   -1.0043   -0.6181 H         1 <0>         0.0000
     14 H7          0.9348    1.7526    1.3647 H         1 <0>         0.0000
     15 H8          1.2085    1.7859   -0.3826 H         1 <0>         0.0000
     16 H9          2.4745    1.2000    0.7093 H         1 <0>         0.0000
     17 H10         0.6955   -0.5011    2.5820 H         1 <0>         0.0000
     18 H11         0.7879   -2.0117    1.6661 H         1 <0>         0.0000
     19 H12         2.2363   -1.0185    1.8797 H         1 <0>         0.0000
     20 H13        -0.8923    0.1003   -1.8957 H         1 <0>         0.0000
     21 H14        -0.8897    1.6045   -0.9697 H         1 <0>         0.0000
     22 H15        -1.0923   -1.2184    0.2087 H         1 <0>         0.0000
     23 H16        -1.1658    0.2598    1.1523 H         1 <0>         0.0000
@<TRIPOS>BOND
     1    1    5 1
     2    2    7 1
     3    3    7 1
     4    4    7 1
     5    5    6 1
     6    6    7 1
     7    1    8 1
     8    1    9 1
     9    1   10 1
    10    2   11 1
    11    2   12 1
    12    2   13 1
    13    3   14 1
    14    3   15 1
    15    3   16 1
    16    4   17 1
    17    4   18 1
    18    4   19 1
    19    5   20 1
    20    5   21 1
    21    6   22 1
    22    6   23 1
@<TRIPOS>MOLECULE
2,3-dimethylpentane
   23    22     0     0     0
SMALL
NO_CHARGES

@<TRIPOS>ATOM
      1 C1         -1.3061   -0.8373   -1.3650 C.3       1 <0>         0.0000
      2 C2          2.9709    0.2099   -0.3558 C.3       1 <0>         0.0000
      3 C3          1.5505   -1.4931    0.8052 C.3       1 <0>         0.0000
      4 C4          0.5704    1.4923    1.1226 C.3       1 <0>         0.0000
      5 C5         -0.9814   -0.0321   -0.1150 C.3       1 <0>         0.0000
      6 C6          1.5775   -0.4214   -0.2915 C.3       1 <0>         0.0000
      7 C7          0.4243    0.6095   -0.1250 C.3       1 <0>         0.0000
      8 H1         -1.2465   -0.1948   -2.2496 H         1 <0>         0.0000
      9 H2         -0.5992   -1.6592   -1.5098 H         1 <0>         0.0000
     10 H3         -2.3183   -1.2509   -1.3152 H         1 <0>         0.0000
     11 H4          3.2044    0.7624    0.5588 H         1 <0>         0.0000
     12 H5          3.0290    0.9225   -1.1862 H         1 <0>         0.0000
     13 H6          3.7509   -0.5415   -0.5126 H         1 <0>         0.0000
     14 H7          1.7058   -1.0363    1.7889 H         1 <0>         0.0000
     15 H8          2.3466   -2.2291    0.6530 H         1 <0>         0.0000
     16 H9          0.5926   -2.0215    0.8380 H         1 <0>         0.0000
     17 H10         0.5432    0.9005    2.0418 H         1 <0>         0.0000
     18 H11         1.5034    2.0638    1.1073 H         1 <0>         0.0000
     19 H12        -0.2550    2.2108    1.1825 H         1 <0>         0.0000
     20 H13        -1.0518   -0.7090    0.7463 H         1 <0>         0.0000
     21 H14        -1.7534    0.7315    0.0345 H         1 <0>         0.0000
     22 H15         1.4164   -0.9543   -1.2370 H         1 <0>         0.0000
     23 H16         0.4622    1.2819   -0.9938 H         1 <0>         0.0000
@<TRIPOS>BOND
     1    1    5 1
     2    2    6 1
     3    3    6 1
     4    4    7 1
     5    5    7 1
     6    6    7 1
     7    1    8 1
     8    1    9 1
     9    1   10 1
    10    2   11 1
    11    2   12 1
    12    2   13 1
    13    3   14 1
    14    3   15 1
    15    3   16 1
    16    4   17 1
    17    4   18 1
    18    4   19 1
    19    5   20 1
    20    5   21 1
    21    6   22 1
    22    7   23 1
@<TRIPOS>MOLECULE
2,4-dimethylpentane
   23    22     0     0     0
SMALL
NO_CHARGES

@<TRIPOS>ATOM
      1 C1         -0.1769   -0.3057   -1.0577 C.3       1 <0>         0.0000
      2 C2         -1.7823   -0.1980   -2.9739 C.3       1 <0>         0.0000
      3 C3         -2.9176    0.7927    1.2735 C.3       1 <0>         0.0000
      4 C4         -3.6946   -1.5788    1.4553 C.3       1 <0>         0.0000
      5 C5         -2.6543   -0.8084   -0.6980 C.3       1 <0>         0.0000
      6 C6         -1.6117    0.0267   -1.4683 C.3       1 <0>         0.0000
      7 C7         -2.6485   -0.6472    0.8355 C.3       1 <0>         0.0000
      8 H1          0.0418   -1.3646   -1.2332 H         1 <0>         0.0000
      9 H2          0.5481    0.2736   -1.6372 H         1 <0>         0.0000
     10 H3         -0.0099   -0.0984    0.0047 H         1 <0>         0.0000
     11 H4         -1.6176   -1.2497   -3.2315 H         1 <0>         0.0000
     12 H5         -2.7887    0.0785   -3.3063 H         1 <0>         0.0000
     13 H6         -1.0609    0.4000   -3.5408 H         1 <0>         0.0000
     14 H7         -3.8857    1.1466    0.9069 H         1 <0>         0.0000
     15 H8         -2.9109    0.8835    2.3649 H         1 <0>         0.0000
     16 H9         -2.1542    1.4692    0.8740 H         1 <0>         0.0000
     17 H10        -4.6997   -1.3256    1.1012 H         1 <0>         0.0000
     18 H11        -3.4985   -2.6253    1.1980 H         1 <0>         0.0000
     19 H12        -3.6951   -1.4918    2.5470 H         1 <0>         0.0000
     20 H13        -2.5022   -1.8697   -0.9376 H         1 <0>         0.0000
     21 H14        -3.6538   -0.5522   -1.0753 H         1 <0>         0.0000
     22 H15        -1.7883    1.0915   -1.2770 H         1 <0>         0.0000
     23 H16        -1.6708   -0.9509    1.2274 H         1 <0>         0.0000
@<TRIPOS>BOND
     1    1    6 1
     2    2    6 1
     3    3    7 1
     4    4    7 1
     5    5    6 1
     6    5    7 1
     7    1    8 1
     8    1    9 1
     9    1   10 1
    10    2   11 1
    11    2   12 1
    12    2   13 1
    13    3   14 1
    14    3   15 1
    15    3   16 1
    16    4   17 1
    17    4   18 1
    18    4   19 1
    19    5   20 1
    20    5   21 1
    21    6   22 1
    22    7   23 1
@<TRIPOS>MOLECULE
3,3-dimethylpentane
   23    22     0     0     0
SMALL
NO_CHARGES

@<TRIPOS>ATOM
      1 C1         -0.5076   -0.4808    0.8472 C.3       1 <0>         0.0000
      2 C2         -2.4258   -3.7024    0.5509 C.3       1 <0>         0.0000
      3 C3         -2.7382   -0.6454    2.9740 C.3       1 <0>         0.0000
      4 C4         -4.3188   -1.3068    1.1665 C.3       1 <0>         0.0000
      5 C5         -1.9974   -0.5983    0.5479 C.3       1 <0>         0.0000
      6 C6         -2.3925   -2.8314    1.8011 C.3       1 <0>         0.0000
      7 C7         -2.8406   -1.3572    1.6082 C.3       1 <0>         0.0000
      8 H1         -0.0423   -1.4617    0.9772 H         1 <0>         0.0000
      9 H2         -0.3610    0.0776    1.7780 H         1 <0>         0.0000
     10 H3          0.0236    0.0561    0.0565 H         1 <0>         0.0000
     11 H4         -3.4326   -3.6912    0.1200 H         1 <0>         0.0000
     12 H5         -1.7377   -3.3361   -0.2158 H         1 <0>         0.0000
     13 H6         -2.1775   -4.7433    0.7752 H         1 <0>         0.0000
     14 H7         -1.7073   -0.6465    3.3457 H         1 <0>         0.0000
     15 H8         -3.3682   -1.1253    3.7301 H         1 <0>         0.0000
     16 H9         -3.0615    0.3994    2.8985 H         1 <0>         0.0000
     17 H10        -4.4703   -1.7958    0.1987 H         1 <0>         0.0000
     18 H11        -4.9686   -1.8005    1.8978 H         1 <0>         0.0000
     19 H12        -4.6635   -0.2712    1.0637 H         1 <0>         0.0000
     20 H13        -2.3988    0.4171    0.4296 H         1 <0>         0.0000
     21 H14        -2.1138   -1.0780   -0.4319 H         1 <0>         0.0000
     22 H15        -1.3757   -2.8597    2.2122 H         1 <0>         0.0000
     23 H16        -3.0312   -3.3046    2.5589 H         1 <0>         0.0000
@<TRIPOS>BOND
     1    1    5 1
     2    2    6 1
     3    3    7 1
     4    4    7 1
     5    5    7 1
     6    6    7 1
     7    1    8 1
     8    1    9 1
     9    1   10 1
    10    2   11 1
    11    2   12 1
    12    2   13 1
    13    3   14 1
    14    3   15 1
    15    3   16 1
    16    4   17 1
    17    4   18 1
    18    4   19 1
    19    5   20 1
    20    5   21 1
    21    6   22 1
    22    6   23 1
@<TRIPOS>MOLECULE
n-octane
   26    25     0     0     0
SMALL
NO_CHARGES

@<TRIPOS>ATOM
      1 C1          0.6305   -1.0371    0.8855 C.3       1 <0>         0.0000
      2 C2          1.2682    5.2725    7.1253 C.3       1 <0>         0.0000
      3 C3          0.3402   -0.5163    2.2849 C.3       1 <0>         0.0000
      4 C4          1.5800    4.7414    5.7353 C.3       1 <0>         0.0000
      5 C5          0.8896    0.8977    2.4784 C.3       1 <0>         0.0000
      6 C6          0.9368    3.3747    5.5006 C.3       1 <0>         0.0000
      7 C7          0.6119    1.4737    3.8699 C.3       1 <0>         0.0000
      8 C8          1.2248    2.8588    4.0888 C.3       1 <0>         0.0000
      9 H1          1.7065   -1.0405    0.6839 H         1 <0>         0.0000
     10 H2          0.2535   -2.0572    0.7599 H         1 <0>         0.0000
     11 H3          0.1464   -0.4019    0.1370 H         1 <0>         0.0000
     12 H4          1.6222    4.5711    7.8871 H         1 <0>         0.0000
     13 H5          0.1902    5.4064    7.2614 H         1 <0>         0.0000
     14 H6          1.7588    6.2361    7.2963 H         1 <0>         0.0000
     15 H7         -0.7430   -0.5296    2.4446 H         1 <0>         0.0000
     16 H8          0.7875   -1.1945    3.0207 H         1 <0>         0.0000
     17 H9          1.2183    5.4568    4.9877 H         1 <0>         0.0000
     18 H10         2.6669    4.6672    5.6143 H         1 <0>         0.0000
     19 H11         1.9760    0.8834    2.3259 H         1 <0>         0.0000
     20 H12         0.4731    1.5652    1.7141 H         1 <0>         0.0000
     21 H13         1.3176    2.6584    6.2388 H         1 <0>         0.0000
     22 H14        -0.1472    3.4480    5.6508 H         1 <0>         0.0000
     23 H15        -0.4707    1.5163    4.0409 H         1 <0>         0.0000
     24 H16         1.0217    0.7796    4.6143 H         1 <0>         0.0000
     25 H17         0.8197    3.5687    3.3591 H         1 <0>         0.0000
     26 H18         2.3088    2.8106    3.9300 H         1 <0>         0.0000
@<TRIPOS>BOND
     1    1    3 1
     2    2    4 1
     3    3    5 1
     4    4    6 1
     5    5    7 1
     6    6    8 1
     7    7    8 1
     8    1    9 1
     9    1   10 1
    10    1   11 1
    11    2   12 1
    12    2   13 1
    13    2   14 1
    14    3   15 1
    15    3   16 1
    16    4   17 1
    17    4   18 1
    18    5   19 1
    19    5   20 1
    20    6   21 1
    21    6   22 1
    22    7   23 1
    23    7   24 1
    24    8   25 1
    25    8   26 1
@<TRIPOS>MOLECULE
3-methylheptane
   26    25     0     0     0
SMALL
NO_CHARGES

@<TRIPOS>ATOM
      1 C1         -0.8987    0.6740    0.3448 C.3       1 <0>         0.0000
      2 C2         -1.1052   -3.8316    6.3841 C.3       1 <0>         0.0000
      3 C3         -2.1279    0.1390    4.6461 C.3       1 <0>         0.0000
      4 C4         -0.8825    0.7104    1.8659 C.3       1 <0>         0.0000
      5 C5         -0.9860   -2.3686    5.9832 C.3       1 <0>         0.0000
      6 C6         -1.1188   -0.6811    2.4589 C.3       1 <0>         0.0000
      7 C7         -1.1248   -2.1931    4.4686 C.3       1 <0>         0.0000
      8 C8         -1.0384   -0.7232    4.0011 C.3       1 <0>         0.0000
      9 H1         -0.1342   -0.0162   -0.0257 H         1 <0>         0.0000
     10 H2         -1.8704    0.3365   -0.0298 H         1 <0>         0.0000
     11 H3         -0.6939    1.6649   -0.0732 H         1 <0>         0.0000
     12 H4         -2.0660   -4.2483    6.0655 H         1 <0>         0.0000
     13 H5         -1.0343   -3.9333    7.4717 H         1 <0>         0.0000
     14 H6         -0.3050   -4.4284    5.9351 H         1 <0>         0.0000
     15 H7         -3.1269   -0.2181    4.3743 H         1 <0>         0.0000
     16 H8         -2.0455    1.1852    4.3377 H         1 <0>         0.0000
     17 H9         -2.0499    0.1328    5.7372 H         1 <0>         0.0000
     18 H10        -1.6561    1.4075    2.2033 H         1 <0>         0.0000
     19 H11         0.0834    1.1014    2.2050 H         1 <0>         0.0000
     20 H12        -0.0154   -1.9833    6.3162 H         1 <0>         0.0000
     21 H13        -1.7621   -1.8019    6.5078 H         1 <0>         0.0000
     22 H14        -2.0957   -1.0572    2.1287 H         1 <0>         0.0000
     23 H15        -0.3647   -1.3646    2.0473 H         1 <0>         0.0000
     24 H16        -0.3262   -2.7663    3.9799 H         1 <0>         0.0000
     25 H17        -2.0741   -2.6323    4.1362 H         1 <0>         0.0000
     26 H18        -0.0616   -0.3243    4.3044 H         1 <0>         0.0000
@<TRIPOS>BOND
     1    1    4 1
     2    2    5 1
     3    3    8 1
     4    4    6 1
     5    5    7 1
     6    6    8 1
     7    7    8 1
     8    1    9 1
     9    1   10 1
    10    1   11 1
    11    2   12 1
    12    2   13 1
    13    2   14 1
    14    3   15 1
    15    3   16 1
    16    3   17 1
    17    4   18 1
    18    4   19 1
    19    5   20 1
    20    5   21 1
    21    6   22 1
    22    6   23 1
    23    7   24 1
    24    7   25 1
    25    8   26 1
@<TRIPOS>MOLECULE
2,2,4-trimethylpentane
   26    25     0     0     0
SMALL
NO_CHARGES

@<TRIPOS>ATOM
      1 C1          1.1328    0.2376    1.9041 C.3       1 <0>         0.0000
      2 C2         -0.3983    2.1927    1.7105 C.3       1 <0>         0.0000
      3 C3         -1.1457   -2.1557   -0.7558 C.3       1 <0>         0.0000
      4 C4          0.1163   -0.4625   -2.0859 C.3       1 <0>         0.0000
      5 C5          1.1888   -1.5254   -0.0998 C.3       1 <0>         0.0000
      6 C6         -0.7192    0.1699    0.1915 C.3       1 <0>         0.0000
      7 C7          0.2970    1.0738    0.9283 C.3       1 <0>         0.0000
      8 C8         -0.1380   -0.9954   -0.6605 C.3       1 <0>         0.0000
      9 H1          0.4930   -0.2503    2.6472 H         1 <0>         0.0000
     10 H2          1.6978   -0.5402    1.3791 H         1 <0>         0.0000
     11 H3          1.8451    0.8699    2.4450 H         1 <0>         0.0000
     12 H4         -1.1065    1.7856    2.4407 H         1 <0>         0.0000
     13 H5          0.3362    2.7938    2.2576 H         1 <0>         0.0000
     14 H6         -0.9481    2.8695    1.0526 H         1 <0>         0.0000
     15 H7         -1.3728   -2.5833    0.2255 H         1 <0>         0.0000
     16 H8         -0.7525   -2.9678   -1.3783 H         1 <0>         0.0000
     17 H9         -2.0894   -1.8239   -1.2033 H         1 <0>         0.0000
     18 H10         0.8302    0.3689   -2.0757 H         1 <0>         0.0000
     19 H11        -0.8109   -0.1017   -2.5454 H         1 <0>         0.0000
     20 H12         0.5264   -1.2437   -2.7361 H         1 <0>         0.0000
     21 H13         1.9307   -0.7224   -0.0188 H         1 <0>         0.0000
     22 H14         1.6220   -2.2960   -0.7456 H         1 <0>         0.0000
     23 H15         1.0534   -1.9502    0.9008 H         1 <0>         0.0000
     24 H16        -1.3995   -0.2775    0.9300 H         1 <0>         0.0000
     25 H17        -1.3573    0.7976   -0.4456 H         1 <0>         0.0000
     26 H18         0.9903    1.5322    0.2161 H         1 <0>         0.0000
@<TRIPOS>BOND
     1    1    7 1
     2    2    7 1
     3    3    8 1
     4    4    8 1
     5    5    8 1
     6    6    7 1
     7    6    8 1
     8    1    9 1
     9    1   10 1
    10    1   11 1
    11    2   12 1
    12    2   13 1
    13    2   14 1
    14    3   15 1
    15    3   16 1
    16    3   17 1
    17    4   18 1
    18    4   19 1
    19    4   20 1
    20    5   21 1
    21    5   22 1
    22    5   23 1
    23    6   24 1
    24    6   25 1
    25    7   26 1
@<TRIPOS>MOLECULE
2,3,4-trimethylpentane
   26    25     0     0     0
SMALL
NO_CHARGES

@<TRIPOS>ATOM
      1 C1          0.0432    0.6217   -2.0925 C.3       1 <0>         0.0000
      2 C2          2.0954    1.3330   -0.8468 C.3       1 <0>         0.0000
      3 C3         -0.2622   -2.2956    0.2409 C.3       1 <0>         0.0000
      4 C4         -1.6067   -0.9796    1.8672 C.3       1 <0>         0.0000
      5 C5         -0.4691    1.5805    0.8462 C.3       1 <0>         0.0000
      6 C6          0.9437    0.3198   -0.8916 C.3       1 <0>         0.0000
      7 C7         -0.8811   -0.9188    0.5146 C.3       1 <0>         0.0000
      8 C8          0.1743    0.2355    0.4654 C.3       1 <0>         0.0000
      9 H1         -0.4695    1.5824   -1.9834 H         1 <0>         0.0000
     10 H2          0.6362    0.6682   -3.0129 H         1 <0>         0.0000
     11 H3         -0.7121   -0.1561   -2.2347 H         1 <0>         0.0000
     12 H4          1.7196    2.3460   -0.6692 H         1 <0>         0.0000
     13 H5          2.6790    1.3365   -1.7723 H         1 <0>         0.0000
     14 H6          2.7844    1.0882   -0.0306 H         1 <0>         0.0000
     15 H7          0.5122   -2.5309    0.9795 H         1 <0>         0.0000
     16 H8         -1.0080   -3.0928    0.3077 H         1 <0>         0.0000
     17 H9          0.1976   -2.3321   -0.7524 H         1 <0>         0.0000
     18 H10        -0.9088   -1.1583    2.6903 H         1 <0>         0.0000
     19 H11        -2.3628   -1.7717    1.8758 H         1 <0>         0.0000
     20 H12        -2.1099   -0.0308    2.0842 H         1 <0>         0.0000
     21 H13        -1.2369    1.8845    0.1299 H         1 <0>         0.0000
     22 H14         0.2716    2.3861    0.8501 H         1 <0>         0.0000
     23 H15        -0.9256    1.5391    1.8402 H         1 <0>         0.0000
     24 H16         1.4199   -0.6511   -1.0720 H         1 <0>         0.0000
     25 H17        -1.6451   -0.7382   -0.2516 H         1 <0>         0.0000
     26 H18         0.9261    0.0165    1.2375 H         1 <0>         0.0000
@<TRIPOS>BOND
     1    1    6 1
     2    2    6 1
     3    3    7 1
     4    4    7 1
     5    5    8 1
     6    6    8 1
     7    7    8 1
     8    1    9 1
     9    1   10 1
    10    1   11 1
    11    2   12 1
    12    2   13 1
    13    2   14 1
    14    3   15 1
    15    3   16 1
    16    3   17 1
    17    4   18 1
    18    4   19 1
    19    4   20 1
    20    5   21 1
    21    5   22 1
    22    5   23 1
    23    6   24 1
    24    7   25 1
    25    8   26 1
@<TRIPOS>MOLECULE
n-nonane
   29    28     0     0     0
SMALL
NO_CHARGES

@<TRIPOS>ATOM
      1 C1          0.5781   -1.9172   -1.3095 C.3       1 <0>         0.0000
      2 C2          6.5713   -5.1293    6.1895 C.3       1 <0>         0.0000
      3 C3          0.8597   -1.8772    0.1844 C.3       1 <0>         0.0000
      4 C4          5.3769   -4.2632    5.8226 C.3       1 <0>         0.0000
      5 C5          2.0367   -2.7584    0.6084 C.3       1 <0>         0.0000
      6 C6          5.0788   -4.3249    4.3248 C.3       1 <0>         0.0000
      7 C7          2.3336   -2.6942    2.1083 C.3       1 <0>         0.0000
      8 C8          3.8560   -3.4790    3.9661 C.3       1 <0>         0.0000
      9 C9          3.5368   -3.5671    2.4727 C.3       1 <0>         0.0000
     10 H1          0.3957   -2.9420   -1.6483 H         1 <0>         0.0000
     11 H2         -0.3109   -1.3211   -1.5398 H         1 <0>         0.0000
     12 H3          1.4110   -1.5042   -1.8860 H         1 <0>         0.0000
     13 H4          6.3883   -6.1689    5.9007 H         1 <0>         0.0000
     14 H5          6.7578   -5.1040    7.2678 H         1 <0>         0.0000
     15 H6          7.4760   -4.7883    5.6762 H         1 <0>         0.0000
     16 H7          1.0381   -0.8411    0.4945 H         1 <0>         0.0000
     17 H8         -0.0369   -2.2172    0.7166 H         1 <0>         0.0000
     18 H9          5.5796   -3.2275    6.1195 H         1 <0>         0.0000
     19 H10         4.5014   -4.5985    6.3909 H         1 <0>         0.0000
     20 H11         1.8051   -3.7946    0.3325 H         1 <0>         0.0000
     21 H12         2.9315   -2.4734    0.0415 H         1 <0>         0.0000
     22 H13         5.9502   -3.9690    3.7618 H         1 <0>         0.0000
     23 H14         4.9054   -5.3663    4.0272 H         1 <0>         0.0000
     24 H15         1.4539   -3.0278    2.6721 H         1 <0>         0.0000
     25 H16         2.5384   -1.6599    2.4065 H         1 <0>         0.0000
     26 H17         4.0389   -2.4331    4.2415 H         1 <0>         0.0000
     27 H18         2.9904   -3.8196    4.5474 H         1 <0>         0.0000
     28 H19         3.3298   -4.6098    2.2026 H         1 <0>         0.0000
     29 H20         4.4104   -3.2491    1.8906 H         1 <0>         0.0000
@<TRIPOS>BOND
     1    1    3 1
     2    2    4 1
     3    3    5 1
     4    4    6 1
     5    5    7 1
     6    6    8 1
     7    7    9 1
     8    8    9 1
     9    1   10 1
    10    1   11 1
    11    1   12 1
    12    2   13 1
    13    2   14 1
    14    2   15 1
    15    3   16 1
    16    3   17 1
    17    4   18 1
    18    4   19 1
    19    5   20 1
    20    5   21 1
    21    6   22 1
    22    6   23 1
    23    7   24 1
    24    7   25 1
    25    8   26 1
    26    8   27 1
    27    9   28 1
    28    9   29 1
@<TRIPOS>MOLECULE
2,2,5-trimethylhexane
   29    28     0     0     0
SMALL
NO_CHARGES

@<TRIPOS>ATOM
      1 C1         -0.9342   -1.8242    2.0753 C.3       1 <0>         0.0000
      2 C2         -0.6962   -3.3249    0.0879 C.3       1 <0>         0.0000
      3 C3          2.0109    1.3693   -0.0501 C.3       1 <0>         0.0000
      4 C4          0.4674    1.4891   -2.0121 C.3       1 <0>         0.0000
      5 C5          0.1605    3.0457   -0.0703 C.3       1 <0>         0.0000
      6 C6         -0.0585   -0.9038   -0.1416 C.3       1 <0>         0.0000
      7 C7         -0.3453    0.5609    0.2207 C.3       1 <0>         0.0000
      8 C8         -1.0122   -1.8998    0.5497 C.3       1 <0>         0.0000
      9 C9          0.5518    1.6167   -0.4823 C.3       1 <0>         0.0000
     10 H1          0.0751   -2.0457    2.4346 H         1 <0>         0.0000
     11 H2         -1.6273   -2.5309    2.5439 H         1 <0>         0.0000
     12 H3         -1.1880   -0.8185    2.4277 H         1 <0>         0.0000
     13 H4          0.3236   -3.6151    0.3628 H         1 <0>         0.0000
     14 H5         -1.3873   -4.0436    0.5411 H         1 <0>         0.0000
     15 H6         -0.7925   -3.4124   -0.9995 H         1 <0>         0.0000
     16 H7          2.1205    1.4502    1.0373 H         1 <0>         0.0000
     17 H8          2.3478    0.3696   -0.3469 H         1 <0>         0.0000
     18 H9          2.6905    2.0975   -0.5075 H         1 <0>         0.0000
     19 H10        -0.5556    1.6577   -2.3665 H         1 <0>         0.0000
     20 H11         1.1217    2.2083   -2.5156 H         1 <0>         0.0000
     21 H12         0.7727    0.4893   -2.3414 H         1 <0>         0.0000
     22 H13        -0.8728    3.2706   -0.3571 H         1 <0>         0.0000
     23 H14         0.8100    3.7959   -0.5325 H         1 <0>         0.0000
     24 H15         0.2398    3.1777    1.0150 H         1 <0>         0.0000
     25 H16         0.9758   -1.1561    0.1200 H         1 <0>         0.0000
     26 H17        -0.1549   -1.0362   -1.2248 H         1 <0>         0.0000
     27 H18        -0.2348    0.6846    1.3052 H         1 <0>         0.0000
     28 H19        -1.3969    0.7791   -0.0088 H         1 <0>         0.0000
     29 H20        -2.0415   -1.6699    0.2463 H         1 <0>         0.0000
@<TRIPOS>BOND
     1    1    8 1
     2    2    8 1
     3    3    9 1
     4    4    9 1
     5    5    9 1
     6    6    7 1
     7    6    8 1
     8    7    9 1
     9    1   10 1
    10    1   11 1
    11    1   12 1
    12    2   13 1
    13    2   14 1
    14    2   15 1
    15    3   16 1
    16    3   17 1
    17    3   18 1
    18    4   19 1
    19    4   20 1
    20    4   21 1
    21    5   22 1
    22    5   23 1
    23    5   24 1
    24    6   25 1
    25    6   26 1
    26    7   27 1
    27    7   28 1
    28    8   29 1
@<TRIPOS>MOLECULE
n-decane
   32    31     0     0     0
SMALL
NO_CHARGES

@<TRIPOS>ATOM
      1 C1          0.4524   -0.7406    0.2814 C.3       1 <0>         0.0000
      2 C2         -7.0612   -8.7114   -3.0138 C.3       1 <0>         0.0000
      3 C3         -0.2801   -2.0451    0.5523 C.3       1 <0>         0.0000
      4 C4         -6.3263   -7.4083   -3.2894 C.3       1 <0>         0.0000
      5 C5         -1.2774   -2.3688   -0.5599 C.3       1 <0>         0.0000
      6 C6         -5.4696   -6.9881   -2.0943 C.3       1 <0>         0.0000
      7 C7         -2.0367   -3.6649   -0.2669 C.3       1 <0>         0.0000
      8 C8         -4.7181   -5.6718   -2.3184 C.3       1 <0>         0.0000
      9 C9         -3.0068   -4.0067   -1.4000 C.3       1 <0>         0.0000
     10 C10        -3.8035   -5.2915   -1.1510 C.3       1 <0>         0.0000
     11 H1          0.9826   -0.7951   -0.6746 H         1 <0>         0.0000
     12 H2          1.1870   -0.5329    1.0660 H         1 <0>         0.0000
     13 H3         -0.2474    0.0998    0.2342 H         1 <0>         0.0000
     14 H4         -6.3469   -9.5069   -2.7790 H         1 <0>         0.0000
     15 H5         -7.7425   -8.6055   -2.1636 H         1 <0>         0.0000
     16 H6         -7.6445   -9.0246   -3.8855 H         1 <0>         0.0000
     17 H7         -0.8039   -1.9705    1.5125 H         1 <0>         0.0000
     18 H8          0.4518   -2.8561    0.6439 H         1 <0>         0.0000
     19 H9         -7.0641   -6.6327   -3.5207 H         1 <0>         0.0000
     20 H10        -5.6940   -7.5332   -4.1761 H         1 <0>         0.0000
     21 H11        -0.7448   -2.4621   -1.5142 H         1 <0>         0.0000
     22 H12        -1.9900   -1.5418   -0.6670 H         1 <0>         0.0000
     23 H13        -4.7305   -7.7727   -1.8894 H         1 <0>         0.0000
     24 H14        -6.0975   -6.9056   -1.1987 H         1 <0>         0.0000
     25 H15        -2.5842   -3.5536    0.6756 H         1 <0>         0.0000
     26 H16        -1.3224   -4.4864   -0.1340 H         1 <0>         0.0000
     27 H17        -5.4444   -4.8729   -2.5057 H         1 <0>         0.0000
     28 H18        -4.1147   -5.7736   -3.2288 H         1 <0>         0.0000
     29 H19        -2.4405   -4.1315   -2.3314 H         1 <0>         0.0000
     30 H20        -3.6981   -3.1704   -1.5611 H         1 <0>         0.0000
     31 H21        -4.3904   -5.1762   -0.2327 H         1 <0>         0.0000
     32 H22        -3.0908   -6.1062   -0.9732 H         1 <0>         0.0000
@<TRIPOS>BOND
     1    1    3 1
     2    2    4 1
     3    3    5 1
     4    4    6 1
     5    5    7 1
     6    6    8 1
     7    7    9 1
     8    8   10 1
     9    9   10 1
    10    1   11 1
    11    1   12 1
    12    1   13 1
    13    2   14 1
    14    2   15 1
    15    2   16 1
    16    3   17 1
    17    3   18 1
    18    4   19 1
    19    4   20 1
    20    5   21 1
    21    5   22 1
    22    6   23 1
    23    6   24 1
    24    7   25 1
    25    7   26 1
    26    8   27 1
    27    8   28 1
    28    9   29 1
    29    9   30 1
    30   10   31 1
    31   10   32 1
@<TRIPOS>MOLECULE
cyclopropane
    9     9     0     0     0
SMALL
NO_CHARGES

@<TRIPOS>ATOM
      1 C1          0.5948   -0.7129    0.5570 C.3       1 <0>         0.0000
      2 C2          1.5175   -1.6099   -0.2149 C.3       1 <0>         0.0000
      3 C3          2.0779   -0.4929    0.6159 C.3       1 <0>         0.0000
      4 H1          0.0003    0.0003   -0.0001 H         1 <0>         0.0000
      5 H2          0.1102   -1.1218    1.4344 H         1 <0>         0.0000
      6 H3          1.6540   -2.6227    0.1430 H         1 <0>         0.0000
      7 H4          1.5446   -1.5009   -1.2918 H         1 <0>         0.0000
      8 H5          2.4818    0.3680    0.0983 H         1 <0>         0.0000
      9 H6          2.5909   -0.7541    1.5330 H         1 <0>         0.0000
@<TRIPOS>BOND
     1    1    2 1
     2    1    3 1
     3    2    3 1
     4    1    4 1
     5    1    5 1
     6    2    6 1
     7    2    7 1
     8    3    8 1
     9    3    9 1
@<TRIPOS>MOLECULE
cyclopentane
   15    15     0     0     0
SMALL
NO_CHARGES

@<TRIPOS>ATOM
      1 C1         -0.2457    0.8538   -0.9315 C.3       1 <0>         0.0000
      2 C2         -1.2679    0.0346   -0.1465 C.3       1 <0>         0.0000
      3 C3          1.1261    0.4809   -0.3704 C.3       1 <0>         0.0000
      4 C4         -0.4578   -1.0394    0.5622 C.3       1 <0>         0.0000
      5 C5          0.8452   -0.3299    0.8861 C.3       1 <0>         0.0000
      6 H1         -0.2939    0.6216   -2.0010 H         1 <0>         0.0000
      7 H2         -0.4438    1.9254   -0.8209 H         1 <0>         0.0000
      8 H3         -1.7643    0.6757    0.5918 H         1 <0>         0.0000
      9 H4         -2.0428   -0.3896   -0.7920 H         1 <0>         0.0000
     10 H5          1.6661   -0.1349   -1.0998 H         1 <0>         0.0000
     11 H6          1.7403    1.3619   -0.1613 H         1 <0>         0.0000
     12 H7         -0.9615   -1.4188    1.4556 H         1 <0>         0.0000
     13 H8         -0.2738   -1.8833   -0.1131 H         1 <0>         0.0000
     14 H9          1.6549   -1.0272    1.1195 H         1 <0>         0.0000
     15 H10         0.7094    0.3391    1.7440 H         1 <0>         0.0000
@<TRIPOS>BOND
     1    1    2 1
     2    1    3 1
     3    2    4 1
     4    3    5 1
     5    4    5 1
     6    1    6 1
     7    1    7 1
     8    2    8 1
     9    2    9 1
    10    3   10 1
    11    3   11 1
    12    4   12 1
    13    4   13 1
    14    5   14 1
    15    5   15 1
@<TRIPOS>MOLECULE
methylcyclopentane
   18    18     0     0     0
SMALL
NO_CHARGES

@<TRIPOS>ATOM
      1 C1         -0.3396    0.4881   -0.9209 C.3       1 <0>         0.0000
      2 C2         -1.6799   -0.1059   -1.3575 C.3       1 <0>         0.0000
      3 C3          0.6372    0.2135   -2.0602 C.3       1 <0>         0.0000
      4 C4         -1.4494   -0.6928   -2.7462 C.3       1 <0>         0.0000
      5 C5          0.0448   -0.9981   -2.7731 C.3       1 <0>         0.0000
      6 C6          0.5910   -1.1933   -4.1767 C.3       1 <0>         0.0000
      7 H1         -0.4177    1.5603   -0.7140 H         1 <0>         0.0000
      8 H2          0.0001    0.0002    0.0001 H         1 <0>         0.0000
      9 H3         -1.9816   -0.8924   -0.6562 H         1 <0>         0.0000
     10 H4         -2.4752    0.6460   -1.3688 H         1 <0>         0.0000
     11 H5          0.6759    1.0810   -2.7306 H         1 <0>         0.0000
     12 H6          1.6518    0.0271   -1.6944 H         1 <0>         0.0000
     13 H7         -2.0608   -1.5833   -2.9215 H         1 <0>         0.0000
     14 H8         -1.7106    0.0501   -3.5100 H         1 <0>         0.0000
     15 H9          0.2424   -1.9013   -2.1809 H         1 <0>         0.0000
     16 H10         0.4038   -0.3041   -4.7819 H         1 <0>         0.0000
     17 H11         0.1092   -2.0489   -4.6538 H         1 <0>         0.0000
     18 H12         1.6674   -1.3724   -4.1416 H         1 <0>         0.0000
@<TRIPOS>BOND
     1    1    2 1
     2    1    3 1
     3    2    4 1
     4    3    5 1
     5    4    5 1
     6    5    6 1
     7    1    7 1
     8    1    8 1
     9    2    9 1
    10    2   10 1
    11    3   11 1
    12    3   12 1
    13    4   13 1
    14    4   14 1
    15    5   15 1
    16    6   16 1
    17    6   17 1
    18    6   18 1
@<TRIPOS>MOLECULE
n-propylcyclopentane
   24    24     0     0     0
SMALL
NO_CHARGES

@<TRIPOS>ATOM
      1 C1         -0.3396    0.4881   -0.9209 C.3       1 <0>         0.0000
      2 C2         -1.6799   -0.1059   -1.3575 C.3       1 <0>         0.0000
      3 C3          0.6372    0.2135   -2.0602 C.3       1 <0>         0.0000
      4 C4         -1.4494   -0.6928   -2.7462 C.3       1 <0>         0.0000
      5 C5          0.0448   -0.9981   -2.7731 C.3       1 <0>         0.0000
      6 C6          0.5267   -2.6170   -6.2556 C.3       1 <0>         0.0000
      7 C7          0.5910   -1.1933   -4.1767 C.3       1 <0>         0.0000
      8 C8          0.0017   -2.4371   -4.8401 C.3       1 <0>         0.0000
      9 H1         -0.4177    1.5603   -0.7140 H         1 <0>         0.0000
     10 H2          0.0001    0.0002    0.0001 H         1 <0>         0.0000
     11 H3         -1.9816   -0.8924   -0.6562 H         1 <0>         0.0000
     12 H4         -2.4752    0.6460   -1.3688 H         1 <0>         0.0000
     13 H5          0.6759    1.0810   -2.7306 H         1 <0>         0.0000
     14 H6          1.6518    0.0271   -1.6944 H         1 <0>         0.0000
     15 H7         -2.0608   -1.5833   -2.9215 H         1 <0>         0.0000
     16 H8         -1.7106    0.0501   -3.5100 H         1 <0>         0.0000
     17 H9          0.2424   -1.9013   -2.1809 H         1 <0>         0.0000
     18 H10         0.2955   -1.7436   -6.8736 H         1 <0>         0.0000
     19 H11         0.0675   -3.4945   -6.7216 H         1 <0>         0.0000
     20 H12         1.6119   -2.7609   -6.2562 H         1 <0>         0.0000
     21 H13         0.3620   -0.3066   -4.7802 H         1 <0>         0.0000
     22 H14         1.6835   -1.2792   -4.1306 H         1 <0>         0.0000
     23 H15         0.2491   -3.3268   -4.2491 H         1 <0>         0.0000
     24 H16        -1.0916   -2.3609   -4.8689 H         1 <0>         0.0000
@<TRIPOS>BOND
     1    1    2 1
     2    1    3 1
     3    2    4 1
     4    3    5 1
     5    4    5 1
     6    5    7 1
     7    6    8 1
     8    7    8 1
     9    1    9 1
    10    1   10 1
    11    2   11 1
    12    2   12 1
    13    3   13 1
    14    3   14 1
    15    4   15 1
    16    4   16 1
    17    5   17 1
    18    6   18 1
    19    6   19 1
    20    6   20 1
    21    7   21 1
    22    7   22 1
    23    8   23 1
    24    8   24 1
@<TRIPOS>MOLECULE
n-pentylcyclopentane
   30    30     0     0     0
SMALL
NO_CHARGES

@<TRIPOS>ATOM
      1 C1         -0.2059    0.4420   -0.8625 C.3       1 <0>         0.0000
      2 C2         -1.5957    0.0196   -1.3422 C.3       1 <0>         0.0000
      3 C3          0.7547    0.1089   -2.0000 C.3       1 <0>         0.0000
      4 C4         -1.4068   -0.5300   -2.7523 C.3       1 <0>         0.0000
      5 C5          0.0448   -0.9981   -2.7731 C.3       1 <0>         0.0000
      6 C6          0.1646   -3.7626   -8.4974 C.3       1 <0>         0.0000
      7 C7          0.5910   -1.1933   -4.1767 C.3       1 <0>         0.0000
      8 C8         -0.3822   -3.5677   -7.0922 C.3       1 <0>         0.0000
      9 C9         -0.1723   -2.2839   -4.9279 C.3       1 <0>         0.0000
     10 C10         0.4022   -2.5008   -6.3288 C.3       1 <0>         0.0000
     11 H1         -0.1688    1.5066   -0.6097 H         1 <0>         0.0000
     12 H2          0.0613   -0.1191    0.0405 H         1 <0>         0.0000
     13 H3         -1.9949   -0.7574   -0.6802 H         1 <0>         0.0000
     14 H4         -2.3027    0.8551   -1.3308 H         1 <0>         0.0000
     15 H5          0.9009    0.9943   -2.6310 H         1 <0>         0.0000
     16 H6          1.7358   -0.2044   -1.6295 H         1 <0>         0.0000
     17 H7         -2.1096   -1.3389   -2.9744 H         1 <0>         0.0000
     18 H8         -1.5706    0.2690   -3.4860 H         1 <0>         0.0000
     19 H9          0.1305   -1.9418   -2.2181 H         1 <0>         0.0000
     20 H10         0.1327   -2.8266   -9.0644 H         1 <0>         0.0000
     21 H11         1.2015   -4.1127   -8.4696 H         1 <0>         0.0000
     22 H12        -0.4308   -4.5066   -9.0358 H         1 <0>         0.0000
     23 H13         1.6532   -1.4567   -4.1155 H         1 <0>         0.0000
     24 H14         0.5224   -0.2461   -4.7241 H         1 <0>         0.0000
     25 H15        -0.3360   -4.5211   -6.5532 H         1 <0>         0.0000
     26 H16        -1.4384   -3.2806   -7.1540 H         1 <0>         0.0000
     27 H17        -1.2306   -2.0059   -5.0038 H         1 <0>         0.0000
     28 H18        -0.1245   -3.2222   -4.3618 H         1 <0>         0.0000
     29 H19         1.4539   -2.8025   -6.2521 H         1 <0>         0.0000
     30 H20         0.3768   -1.5567   -6.8866 H         1 <0>         0.0000
@<TRIPOS>BOND
     1    1    2 1
     2    1    3 1
     3    2    4 1
     4    3    5 1
     5    4    5 1
     6    5    7 1
     7    6    8 1
     8    7    9 1
     9    8   10 1
    10    9   10 1
    11    1   11 1
    12    1   12 1
    13    2   13 1
    14    2   14 1
    15    3   15 1
    16    3   16 1
    17    4   17 1
    18    4   18 1
    19    5   19 1
    20    6   20 1
    21    6   21 1
    22    6   22 1
    23    7   23 1
    24    7   24 1
    25    8   25 1
    26    8   26 1
    27    9   27 1
    28    9   28 1
    29   10   29 1
    30   10   30 1
@<TRIPOS>MOLECULE
cyclohexane
   18    18     0     0     0
SMALL
NO_CHARGES

@<TRIPOS>ATOM
      1 C1          0.3257    0.2271   -1.4209 C.3       1 <0>         0.0000
      2 C2          1.4192   -0.0672   -0.3976 C.3       1 <0>         0.0000
      3 C3         -1.0123   -0.3779   -1.0045 C.3       1 <0>         0.0000
      4 C4          1.0123    0.3778    1.0046 C.3       1 <0>         0.0000
      5 C5         -1.4192    0.0673    0.3976 C.3       1 <0>         0.0000
      6 C6         -0.3257   -0.2271    1.4209 C.3       1 <0>         0.0000
      7 H1          0.2153    1.3127   -1.5339 H         1 <0>         0.0000
      8 H2          0.6202   -0.1679   -2.3997 H         1 <0>         0.0000
      9 H3          1.6316   -1.1434   -0.3907 H         1 <0>         0.0000
     10 H4          2.3456    0.4395   -0.6909 H         1 <0>         0.0000
     11 H5         -1.7873   -0.0886   -1.7230 H         1 <0>         0.0000
     12 H6         -0.9422   -1.4724   -1.0332 H         1 <0>         0.0000
     13 H7          1.7876    0.0884    1.7231 H         1 <0>         0.0000
     14 H8          0.9419    1.4721    1.0331 H         1 <0>         0.0000
     15 H9         -1.6319    1.1436    0.3908 H         1 <0>         0.0000
     16 H10        -2.3453   -0.4392    0.6917 H         1 <0>         0.0000
     17 H11        -0.2152   -1.3126    1.5339 H         1 <0>         0.0000
     18 H12        -0.6205    0.1679    2.3997 H         1 <0>         0.0000
@<TRIPOS>BOND
     1    1    2 1
     2    1    3 1
     3    2    4 1
     4    3    5 1
     5    4    6 1
     6    5    6 1
     7    1    7 1
     8    1    8 1
     9    2    9 1
    10    2   10 1
    11    3   11 1
    12    3   12 1
    13    4   13 1
    14    4   14 1
    15    5   15 1
    16    5   16 1
    17    6   17 1
    18    6   18 1
@<TRIPOS>MOLECULE
methylcyclohexane
   21    21     0     0     0
SMALL
NO_CHARGES

@<TRIPOS>ATOM
      1 C1          0.8995   -0.5234   -0.3432 C.3       1 <0>         0.0000
      2 C2          0.8735   -1.9668    0.1497 C.3       1 <0>         0.0000
      3 C3          0.9867   -0.4515   -1.8645 C.3       1 <0>         0.0000
      4 C4          2.0621   -2.7649   -0.3812 C.3       1 <0>         0.0000
      5 C5          2.1754   -1.2472   -2.3989 C.3       1 <0>         0.0000
      6 C6          2.1480   -2.7023   -1.9123 C.3       1 <0>         0.0000
      7 C7          3.3738   -3.4625   -2.4153 C.3       1 <0>         0.0000
      8 H1         -0.0006   -0.0005   -0.0004 H         1 <0>         0.0000
      9 H2          1.7597   -0.0036    0.0962 H         1 <0>         0.0000
     10 H3          0.8793   -1.9815    1.2456 H         1 <0>         0.0000
     11 H4         -0.0598   -2.4458   -0.1711 H         1 <0>         0.0000
     12 H5          0.0599   -0.8421   -2.3025 H         1 <0>         0.0000
     13 H6          1.0718    0.5949   -2.1790 H         1 <0>         0.0000
     14 H7          2.9864   -2.3713    0.0610 H         1 <0>         0.0000
     15 H8          1.9732   -3.8076   -0.0536 H         1 <0>         0.0000
     16 H9          2.1663   -1.2188   -3.4951 H         1 <0>         0.0000
     17 H10         3.1065   -0.7632   -2.0769 H         1 <0>         0.0000
     18 H11         1.2555   -3.1885   -2.3283 H         1 <0>         0.0000
     19 H12         4.2793   -3.0052   -2.0201 H         1 <0>         0.0000
     20 H13         3.4049   -3.4336   -3.5031 H         1 <0>         0.0000
     21 H14         3.3251   -4.4994   -2.0869 H         1 <0>         0.0000
@<TRIPOS>BOND
     1    1    2 1
     2    1    3 1
     3    2    4 1
     4    3    5 1
     5    4    6 1
     6    5    6 1
     7    6    7 1
     8    1    8 1
     9    1    9 1
    10    2   10 1
    11    2   11 1
    12    3   12 1
    13    3   13 1
    14    4   14 1
    15    4   15 1
    16    5   16 1
    17    5   17 1
    18    6   18 1
    19    7   19 1
    20    7   20 1
    21    7   21 1
@<TRIPOS>MOLECULE
cis-1,2-dimethylcyclohexane
   24    24     0     0     0
SMALL
NO_CHARGES

@<TRIPOS>ATOM
      1 C1          0.7402    0.0391    0.8075 C.3       1 <0>         0.0000
      2 C2          0.2013    0.8940    1.9491 C.3       1 <0>         0.0000
      3 C3          1.0623   -1.3797    1.2712 C.3       1 <0>         0.0000
      4 C4          1.1337    0.8902    3.1576 C.3       1 <0>         0.0000
      5 C5          2.0172   -1.4136    2.4777 C.3       1 <0>         0.0000
      6 C6          1.4552   -0.5381    3.6246 C.3       1 <0>         0.0000
      7 C7          3.4435   -1.0419    2.0543 C.3       1 <0>         0.0000
      8 C8          2.3663   -0.5074    4.8525 C.3       1 <0>         0.0000
      9 H1         -0.0002    0.0003   -0.0001 H         1 <0>         0.0000
     10 H2          1.6375    0.5082    0.3875 H         1 <0>         0.0000
     11 H3          0.0531    1.9226    1.6016 H         1 <0>         0.0000
     12 H4         -0.7834    0.5165    2.2511 H         1 <0>         0.0000
     13 H5          0.1256   -1.8810    1.5482 H         1 <0>         0.0000
     14 H6          1.4833   -1.9521    0.4359 H         1 <0>         0.0000
     15 H7          2.0568    1.4268    2.9077 H         1 <0>         0.0000
     16 H8          0.6602    1.4496    3.9737 H         1 <0>         0.0000
     17 H9          2.0556   -2.4523    2.8340 H         1 <0>         0.0000
     18 H10         0.5090   -0.9979    3.9445 H         1 <0>         0.0000
     19 H11         3.4591   -0.0176    1.6919 H         1 <0>         0.0000
     20 H12         3.7729   -1.7102    1.2634 H         1 <0>         0.0000
     21 H13         4.1107   -1.1341    2.9071 H         1 <0>         0.0000
     22 H14         3.3221   -0.0590    4.5892 H         1 <0>         0.0000
     23 H15         2.5329   -1.5209    5.2114 H         1 <0>         0.0000
     24 H16         1.9000    0.0800    5.6409 H         1 <0>         0.0000
@<TRIPOS>BOND
     1    1    2 1
     2    1    3 1
     3    2    4 1
     4    3    5 1
     5    4    6 1
     6    5    6 1
     7    5    7 1
     8    6    8 1
     9    1    9 1
    10    1   10 1
    11    2   11 1
    12    2   12 1
    13    3   13 1
    14    3   14 1
    15    4   15 1
    16    4   16 1
    17    5   17 1
    18    6   18 1
    19    7   19 1
    20    7   20 1
    21    7   21 1
    22    8   22 1
    23    8   23 1
    24    8   24 1
@<TRIPOS>MOLECULE
trans-1,4-dimethylcyclohexane
   24    24     0     0     0
SMALL
NO_CHARGES

@<TRIPOS>ATOM
      1 C1          0.8696   -0.5734    0.3461 C.3       1 <0>         0.0000
      2 C2          1.8746    0.3795    0.9910 C.3       1 <0>         0.0000
      3 C3         -0.1309   -1.0531    2.6146 C.3       1 <0>         0.0000
      4 C4          0.8743   -0.1004    3.2593 C.3       1 <0>         0.0000
      5 C5          0.4196   -1.6683    1.3218 C.3       1 <0>         0.0000
      6 C6          1.3236    0.9946    2.2837 C.3       1 <0>         0.0000
      7 C7         -0.6220   -2.5762    0.6708 C.3       1 <0>         0.0000
      8 C8          2.3642    1.9035    2.9349 C.3       1 <0>         0.0000
      9 H1         -0.0003   -0.0003    0.0004 H         1 <0>         0.0000
     10 H2          1.3231   -1.0284   -0.5424 H         1 <0>         0.0000
     11 H3          2.8036   -0.1653    1.2025 H         1 <0>         0.0000
     12 H4          2.1279    1.1731    0.2779 H         1 <0>         0.0000
     13 H5         -0.3839   -1.8469    3.3276 H         1 <0>         0.0000
     14 H6         -1.0600   -0.5081    2.4037 H         1 <0>         0.0000
     15 H7          0.4210    0.3545    4.1483 H         1 <0>         0.0000
     16 H8          1.7440   -0.6738    3.6049 H         1 <0>         0.0000
     17 H9          1.2921   -2.2847    1.5766 H         1 <0>         0.0000
     18 H10         0.4504    1.6101    2.0291 H         1 <0>         0.0000
     19 H11        -1.5033   -1.9950    0.4047 H         1 <0>         0.0000
     20 H12        -0.9103   -3.3638    1.3648 H         1 <0>         0.0000
     21 H13        -0.2072   -3.0275   -0.2290 H         1 <0>         0.0000
     22 H14         3.2461    1.3232    3.2008 H         1 <0>         0.0000
     23 H15         1.9489    2.3540    3.8347 H         1 <0>         0.0000
     24 H16         2.6514    2.6917    2.2409 H         1 <0>         0.0000
@<TRIPOS>BOND
     1    1    2 1
     2    1    5 1
     3    2    6 1
     4    3    4 1
     5    3    5 1
     6    4    6 1
     7    5    7 1
     8    6    8 1
     9    1    9 1
    10    1   10 1
    11    2   11 1
    12    2   12 1
    13    3   13 1
    14    3   14 1
    15    4   15 1
    16    4   16 1
    17    5   17 1
    18    6   18 1
    19    7   19 1
    20    7   20 1
    21    7   21 1
    22    8   22 1
    23    8   23 1
    24    8   24 1
@<TRIPOS>MOLECULE
ethene
    6     5     0     0     0
SMALL
NO_CHARGES

@<TRIPOS>ATOM
      1 C1          0.2842    1.0298   -0.1842 C.2       1 <0>         0.0000
      2 C2         -0.6398    1.9558   -0.4472 C.2       1 <0>         0.0000
      3 H1          1.3359    1.2903   -0.1502 H         1 <0>         0.0000
      4 H2          0.0000    0.0000    0.0000 H         1 <0>         0.0000
      5 H3         -1.6915    1.6952   -0.4813 H         1 <0>         0.0000
      6 H4         -0.3558    2.9856   -0.6318 H         1 <0>         0.0000
@<TRIPOS>BOND
     1    1    2 2
     2    1    3 1
     3    1    4 1
     4    2    5 1
     5    2    6 1
@<TRIPOS>MOLECULE
propene
    9     8     0     0     0
SMALL
NO_CHARGES

@<TRIPOS>ATOM
      1 C1          0.8212   -0.6789   -0.2025 C.2       1 <0>         0.0000
      2 C2          1.3491   -1.4450    0.7582 C.2       1 <0>         0.0000
      3 C3          0.8797   -1.4501    2.1744 C.3       1 <0>         0.0000
      4 H1          1.2086   -0.7222   -1.2145 H         1 <0>         0.0000
      5 H2          0.0000    0.0000    0.0000 H         1 <0>         0.0000
      6 H3          2.1710   -2.1092    0.5059 H         1 <0>         0.0000
      7 H4          1.4342   -0.7057    2.7538 H         1 <0>         0.0000
      8 H5          1.0159   -2.4253    2.6524 H         1 <0>         0.0000
      9 H6         -0.1838   -1.1958    2.2155 H         1 <0>         0.0000
@<TRIPOS>BOND
     1    1    2 2
     2    2    3 1
     3    1    4 1
     4    1    5 1
     5    2    6 1
     6    3    7 1
     7    3    8 1
     8    3    9 1
@<TRIPOS>MOLECULE
1-butene
   12    11     0     0     0
SMALL
NO_CHARGES

@<TRIPOS>ATOM
      1 C1          0.6567   -1.0574   -0.4308 C.2       1 <0>         0.0000
      2 C2          1.9491   -0.7461   -0.2814 C.2       1 <0>         0.0000
      3 C3          3.1010    0.3358   -2.2125 C.3       1 <0>         0.0000
      4 C4          2.5725    0.5157   -0.7980 C.3       1 <0>         0.0000
      5 H1          0.2468   -1.9824   -0.0407 H         1 <0>         0.0000
      6 H2         -0.0142   -0.3821   -0.9506 H         1 <0>         0.0000
      7 H3          2.5932   -1.4388    0.2543 H         1 <0>         0.0000
      8 H4          3.8206   -0.4883   -2.2455 H         1 <0>         0.0000
      9 H5          3.6070    1.2412   -2.5639 H         1 <0>         0.0000
     10 H6          2.2909    0.1039   -2.9123 H         1 <0>         0.0000
     11 H7          1.8542    1.3439   -0.7838 H         1 <0>         0.0000
     12 H8          3.3978    0.7976   -0.1343 H         1 <0>         0.0000
@<TRIPOS>BOND
     1    1    2 2
     2    2    4 1
     3    3    4 1
     4    1    5 1
     5    1    6 1
     6    2    7 1
     7    3    8 1
     8    3    9 1
     9    3   10 1
    10    4   11 1
    11    4   12 1
@<TRIPOS>MOLECULE
1-pentene
   15    14     0     0     0
SMALL
NO_CHARGES

@<TRIPOS>ATOM
      1 C1          0.7313   -0.6922    0.4155 C.2       1 <0>         0.0000
      2 C2          1.0744   -1.7916   -0.2651 C.2       1 <0>         0.0000
      3 C3         -0.5140   -3.6833   -3.2192 C.3       1 <0>         0.0000
      4 C4          0.6555   -2.0678   -1.6788 C.3       1 <0>         0.0000
      5 C5         -0.1112   -3.3865   -1.7831 C.3       1 <0>         0.0000
      6 H1          1.0566   -0.5325    1.4376 H         1 <0>         0.0000
      7 H2          0.1149    0.0703   -0.0478 H         1 <0>         0.0000
      8 H3          1.7029   -2.5318    0.2234 H         1 <0>         0.0000
      9 H4          0.3639   -3.7296   -3.8715 H         1 <0>         0.0000
     10 H5         -1.1766   -2.8982   -3.5968 H         1 <0>         0.0000
     11 H6         -1.0448   -4.6382   -3.2883 H         1 <0>         0.0000
     12 H7          0.0365   -1.2497   -2.0672 H         1 <0>         0.0000
     13 H8          1.5547   -2.1103   -2.3050 H         1 <0>         0.0000
     14 H9         -1.0123   -3.3474   -1.1589 H         1 <0>         0.0000
     15 H10         0.5051   -4.2120   -1.4065 H         1 <0>         0.0000
@<TRIPOS>BOND
     1    1    2 2
     2    2    4 1
     3    3    5 1
     4    4    5 1
     5    1    6 1
     6    1    7 1
     7    2    8 1
     8    3    9 1
     9    3   10 1
    10    3   11 1
    11    4   12 1
    12    4   13 1
    13    5   14 1
    14    5   15 1
@<TRIPOS>MOLECULE
Z-2-pentene
   15    14     0     0     0
SMALL
NO_CHARGES

@<TRIPOS>ATOM
      1 C1          1.5643   -0.6624    1.2357 C.2       1 <0>         0.0000
      2 C2          0.8257    0.2886    0.6459 C.2       1 <0>         0.0000
      3 C3          1.3215   -2.1259    1.0696 C.3       1 <0>         0.0000
      4 C4          0.1007   -0.1225   -1.7064 C.3       1 <0>         0.0000
      5 C5         -0.3382    0.0013   -0.2557 C.3       1 <0>         0.0000
      6 H1          2.3932   -0.3774    1.8782 H         1 <0>         0.0000
      7 H2          1.0602    1.3351    0.8250 H         1 <0>         0.0000
      8 H3          0.6278   -2.4781    1.8391 H         1 <0>         0.0000
      9 H4          2.2430   -2.7115    1.1472 H         1 <0>         0.0000
     10 H5          0.8755   -2.3204    0.0895 H         1 <0>         0.0000
     11 H6          0.8270   -0.9345   -1.8137 H         1 <0>         0.0000
     12 H7          0.5719    0.8019   -2.0572 H         1 <0>         0.0000
     13 H8         -0.7495   -0.3417   -2.3612 H         1 <0>         0.0000
     14 H9         -1.0643    0.8170   -0.1634 H         1 <0>         0.0000
     15 H10        -0.8525   -0.9189    0.0450 H         1 <0>         0.0000
@<TRIPOS>BOND
     1    1    2 2
     2    1    3 1
     3    2    5 1
     4    4    5 1
     5    1    6 1
     6    2    7 1
     7    3    8 1
     8    3    9 1
     9    3   10 1
    10    4   11 1
    11    4   12 1
    12    4   13 1
    13    5   14 1
    14    5   15 1
@<TRIPOS>MOLECULE
3-methyl-1-butene
   15    14     0     0     0
SMALL
NO_CHARGES

@<TRIPOS>ATOM
      1 C1          0.9502   -0.5096    0.1168 C.2       1 <0>         0.0000
      2 C2          1.0894   -1.4836    1.0237 C.2       1 <0>         0.0000
      3 C3          0.3870   -1.7197    3.4007 C.3       1 <0>         0.0000
      4 C4         -0.3339   -3.4146    1.6914 C.3       1 <0>         0.0000
      5 C5         -0.0137   -1.9412    1.9424 C.3       1 <0>         0.0000
      6 H1          1.7708   -0.2103   -0.5257 H         1 <0>         0.0000
      7 H2          0.0025    0.0058    0.0059 H         1 <0>         0.0000
      8 H3          2.0543   -1.9783    1.1080 H         1 <0>         0.0000
      9 H4          1.2950   -2.2827    3.6419 H         1 <0>         0.0000
     10 H5         -0.4041   -2.0559    4.0804 H         1 <0>         0.0000
     11 H6          0.5826   -0.6614    3.6089 H         1 <0>         0.0000
     12 H7          0.5393   -4.0530    1.8675 H         1 <0>         0.0000
     13 H8         -1.1369   -3.7539    2.3545 H         1 <0>         0.0000
     14 H9         -0.6648   -3.5739    0.6590 H         1 <0>         0.0000
     15 H10        -0.9243   -1.3595    1.7496 H         1 <0>         0.0000
@<TRIPOS>BOND
     1    1    2 2
     2    2    5 1
     3    3    5 1
     4    4    5 1
     5    1    6 1
     6    1    7 1
     7    2    8 1
     8    3    9 1
     9    3   10 1
    10    3   11 1
    11    4   12 1
    12    4   13 1
    13    4   14 1
    14    5   15 1
@<TRIPOS>MOLECULE
2-methyl-2-butene
   15    14     0     0     0
SMALL
NO_CHARGES

@<TRIPOS>ATOM
      1 C1         -1.3569    0.2480    1.6461 C.2       1 <0>         0.0000
      2 C2         -2.4533   -0.0044    2.3864 C.2       1 <0>         0.0000
      3 C3         -0.9435   -0.4100    0.3920 C.3       1 <0>         0.0000
      4 C4         -2.7323    0.7616    3.6496 C.3       1 <0>         0.0000
      5 C5         -3.4775   -1.0459    2.0346 C.3       1 <0>         0.0000
      6 H1         -0.6780    1.0254    1.9917 H         1 <0>         0.0000
      7 H2         -0.3058   -1.2884    0.5752 H         1 <0>         0.0000
      8 H3         -1.7965   -0.7784   -0.1958 H         1 <0>         0.0000
      9 H4         -0.3565    0.2515   -0.2612 H         1 <0>         0.0000
     10 H5         -3.3278    1.6534    3.4285 H         1 <0>         0.0000
     11 H6         -3.2895    0.1376    4.3561 H         1 <0>         0.0000
     12 H7         -1.8145    1.0901    4.1485 H         1 <0>         0.0000
     13 H8         -3.2088   -2.0065    2.4865 H         1 <0>         0.0000
     14 H9         -4.4617   -0.7495    2.4120 H         1 <0>         0.0000
     15 H10        -3.5723   -1.2044    0.9566 H         1 <0>         0.0000
@<TRIPOS>BOND
     1    1    2 2
     2    1    3 1
     3    2    4 1
     4    2    5 1
     5    1    6 1
     6    3    7 1
     7    3    8 1
     8    3    9 1
     9    4   10 1
    10    4   11 1
    11    4   12 1
    12    5   13 1
    13    5   14 1
    14    5   15 1
@<TRIPOS>MOLECULE
1-hexene
   18    17     0     0     0
SMALL
NO_CHARGES

@<TRIPOS>ATOM
      1 C1          0.9435    0.3054    0.2521 C.2       1 <0>         0.0000
      2 C2          1.1781    1.2378    1.1820 C.2       1 <0>         0.0000
      3 C3         -1.0758    2.5855    5.4624 C.3       1 <0>         0.0000
      4 C4          0.1112    2.0898    1.8034 C.3       1 <0>         0.0000
      5 C5         -1.0224    2.7714    3.9544 C.3       1 <0>         0.0000
      6 C6          0.0871    1.9285    3.3247 C.3       1 <0>         0.0000
      7 H1          1.7608   -0.2749   -0.1620 H         1 <0>         0.0000
      8 H2         -0.0586    0.1042   -0.1098 H         1 <0>         0.0000
      9 H3          2.2021    1.4032    1.5071 H         1 <0>         0.0000
     10 H4         -0.1211    2.8551    5.9252 H         1 <0>         0.0000
     11 H5         -1.2894    1.5405    5.7081 H         1 <0>         0.0000
     12 H6         -1.8606    3.2060    5.9065 H         1 <0>         0.0000
     13 H7         -0.8739    1.8405    1.3905 H         1 <0>         0.0000
     14 H8          0.3087    3.1368    1.5441 H         1 <0>         0.0000
     15 H9         -1.9913    2.4934    3.5235 H         1 <0>         0.0000
     16 H10        -0.8584    3.8315    3.7284 H         1 <0>         0.0000
     17 H11         1.0559    2.2258    3.7459 H         1 <0>         0.0000
     18 H12        -0.0638    0.8726    3.5831 H         1 <0>         0.0000
@<TRIPOS>BOND
     1    1    2 2
     2    2    4 1
     3    3    5 1
     4    4    6 1
     5    5    6 1
     6    1    7 1
     7    1    8 1
     8    2    9 1
     9    3   10 1
    10    3   11 1
    11    3   12 1
    12    4   13 1
    13    4   14 1
    14    5   15 1
    15    5   16 1
    16    6   17 1
    17    6   18 1
@<TRIPOS>MOLECULE
2-methyl-1-pentene
   18    17     0     0     0
SMALL
NO_CHARGES

@<TRIPOS>ATOM
      1 C1         -0.7318   -0.1149    2.2287 C.2       1 <0>         0.0000
      2 C2         -0.0603    0.9915    1.8730 C.2       1 <0>         0.0000
      3 C3         -0.0377    1.4694    0.4495 C.3       1 <0>         0.0000
      4 C4          0.8970    4.0809    4.0049 C.3       1 <0>         0.0000
      5 C5          0.6737    1.8302    2.8922 C.3       1 <0>         0.0000
      6 C6          0.1244    3.2556    2.9869 C.3       1 <0>         0.0000
      7 H1         -0.7480   -0.4601    3.2572 H         1 <0>         0.0000
      8 H2         -1.2836   -0.6995    1.5000 H         1 <0>         0.0000
      9 H3         -0.8705    2.1561    0.2662 H         1 <0>         0.0000
     10 H4          0.8989    1.9913    0.2312 H         1 <0>         0.0000
     11 H5         -0.1287    0.6425   -0.2631 H         1 <0>         0.0000
     12 H6          1.9610    4.1221    3.7507 H         1 <0>         0.0000
     13 H7          0.7991    3.6565    5.0091 H         1 <0>         0.0000
     14 H8          0.5143    5.1061    4.0303 H         1 <0>         0.0000
     15 H9          1.7426    1.8743    2.6450 H         1 <0>         0.0000
     16 H10         0.6112    1.3382    3.8711 H         1 <0>         0.0000
     17 H11        -0.9324    3.2392    3.2766 H         1 <0>         0.0000
     18 H12         0.1838    3.7468    2.0081 H         1 <0>         0.0000
@<TRIPOS>BOND
     1    1    2 2
     2    2    3 1
     3    2    5 1
     4    4    6 1
     5    5    6 1
     6    1    7 1
     7    1    8 1
     8    3    9 1
     9    3   10 1
    10    3   11 1
    11    4   12 1
    12    4   13 1
    13    4   14 1
    14    5   15 1
    15    5   16 1
    16    6   17 1
    17    6   18 1
@<TRIPOS>MOLECULE
1-heptene
   21    20     0     0     0
SMALL
NO_CHARGES

@<TRIPOS>ATOM
      1 C1         -3.6720   -1.4198   -0.8263 C.2       1 <0>         0.0000
      2 C2         -2.7765   -2.3792   -0.5673 C.2       1 <0>         0.0000
      3 C3          0.7465   -3.8208    4.5458 C.3       1 <0>         0.0000
      4 C4         -1.5981   -2.2028    0.3447 C.3       1 <0>         0.0000
      5 C5         -0.4544   -3.9817    3.6273 C.3       1 <0>         0.0000
      6 C6         -1.6082   -3.1713    1.5317 C.3       1 <0>         0.0000
      7 C7         -0.4177   -2.9764    2.4757 C.3       1 <0>         0.0000
      8 H1         -4.5098   -1.5909   -1.4930 H         1 <0>         0.0000
      9 H2         -3.5751   -0.4407   -0.3704 H         1 <0>         0.0000
     10 H3         -2.8941   -3.3460   -1.0499 H         1 <0>         0.0000
     11 H4          1.6829   -3.9497    3.9935 H         1 <0>         0.0000
     12 H5          0.7215   -4.5557    5.3566 H         1 <0>         0.0000
     13 H6          0.7507   -2.8217    4.9927 H         1 <0>         0.0000
     14 H7         -0.6885   -2.3782   -0.2426 H         1 <0>         0.0000
     15 H8         -1.5369   -1.1716    0.7134 H         1 <0>         0.0000
     16 H9         -1.3733   -3.8471    4.2098 H         1 <0>         0.0000
     17 H10        -0.4684   -5.0033    3.2302 H         1 <0>         0.0000
     18 H11        -1.5905   -4.1958    1.1394 H         1 <0>         0.0000
     19 H12        -2.5456   -3.0644    2.0920 H         1 <0>         0.0000
     20 H13        -0.4242   -1.9594    2.8846 H         1 <0>         0.0000
     21 H14         0.5178   -3.0948    1.9155 H         1 <0>         0.0000
@<TRIPOS>BOND
     1    1    2 2
     2    2    4 1
     3    3    5 1
     4    4    6 1
     5    5    7 1
     6    6    7 1
     7    1    8 1
     8    1    9 1
     9    2   10 1
    10    3   11 1
    11    3   12 1
    12    3   13 1
    13    4   14 1
    14    4   15 1
    15    5   16 1
    16    5   17 1
    17    6   18 1
    18    6   19 1
    19    7   20 1
    20    7   21 1
@<TRIPOS>MOLECULE
E-2-heptene
   21    20     0     0     0
SMALL
NO_CHARGES

@<TRIPOS>ATOM
      1 C1          1.4387    1.3907   -0.6400 C.2       1 <0>         0.0000
      2 C2          1.0587    0.2352   -0.0758 C.2       1 <0>         0.0000
      3 C3          0.4863    2.3971   -1.1953 C.3       1 <0>         0.0000
      4 C4          2.5670   -2.2827    4.0333 C.3       1 <0>         0.0000
      5 C5          2.0180   -0.7777    0.4795 C.3       1 <0>         0.0000
      6 C6          2.8012   -2.0581    2.5473 C.3       1 <0>         0.0000
      7 C7          1.8091   -1.0434    1.9736 C.3       1 <0>         0.0000
      8 H1          2.4959    1.6331   -0.7073 H         1 <0>         0.0000
      9 H2          0.0006   -0.0067   -0.0134 H         1 <0>         0.0000
     10 H3          0.2960    2.1865   -2.2522 H         1 <0>         0.0000
     11 H4          0.9168    3.4002   -1.1163 H         1 <0>         0.0000
     12 H5         -0.4733    2.3956   -0.6687 H         1 <0>         0.0000
     13 H6          2.6586   -1.3451    4.5908 H         1 <0>         0.0000
     14 H7          1.5695   -2.6951    4.2154 H         1 <0>         0.0000
     15 H8          3.3035   -2.9880    4.4307 H         1 <0>         0.0000
     16 H9          1.8702   -1.7168   -0.0675 H         1 <0>         0.0000
     17 H10         3.0571   -0.4743    0.3033 H         1 <0>         0.0000
     18 H11         2.7024   -3.0141    2.0199 H         1 <0>         0.0000
     19 H12         3.8301   -1.7107    2.4010 H         1 <0>         0.0000
     20 H13         0.7885   -1.4199    2.1165 H         1 <0>         0.0000
     21 H14         1.8788   -0.1017    2.5328 H         1 <0>         0.0000
@<TRIPOS>BOND
     1    1    2 2
     2    1    3 1
     3    2    5 1
     4    4    6 1
     5    5    7 1
     6    6    7 1
     7    1    8 1
     8    2    9 1
     9    3   10 1
    10    3   11 1
    11    3   12 1
    12    4   13 1
    13    4   14 1
    14    4   15 1
    15    5   16 1
    16    5   17 1
    17    6   18 1
    18    6   19 1
    19    7   20 1
    20    7   21 1
@<TRIPOS>MOLECULE
1-octene
   24    23     0     0     0
SMALL
NO_CHARGES

@<TRIPOS>ATOM
      1 C1         -0.8494   -0.0984   -4.2749 C.2       1 <0>         0.0000
      2 C2         -1.7449   -0.8079   -3.5795 C.2       1 <0>         0.0000
      3 C3         -6.7594    1.3909    1.6543 C.3       1 <0>         0.0000
      4 C4         -3.1602   -0.3689   -3.3404 C.3       1 <0>         0.0000
      5 C5         -6.5092    1.1216    0.1790 C.3       1 <0>         0.0000
      6 C6         -3.4430   -0.2067   -1.8448 C.3       1 <0>         0.0000
      7 C7         -5.1141    0.5409   -0.0558 C.3       1 <0>         0.0000
      8 C8         -4.8546    0.3081   -1.5458 C.3       1 <0>         0.0000
      9 H1          0.1643   -0.4535   -4.4238 H         1 <0>         0.0000
     10 H2         -1.1232    0.8572   -4.7085 H         1 <0>         0.0000
     11 H3         -1.4429   -1.7669   -3.1666 H         1 <0>         0.0000
     12 H4         -6.0150    2.0844    2.0583 H         1 <0>         0.0000
     13 H5         -7.7529    1.8230    1.8112 H         1 <0>         0.0000
     14 H6         -6.7002    0.4590    2.2252 H         1 <0>         0.0000
     15 H7         -3.8248   -1.1244   -3.7736 H         1 <0>         0.0000
     16 H8         -3.3662    0.5750   -3.8593 H         1 <0>         0.0000
     17 H9         -7.2696    0.4257   -0.1937 H         1 <0>         0.0000
     18 H10        -6.6226    2.0572   -0.3809 H         1 <0>         0.0000
     19 H11        -3.2853   -1.1618   -1.3276 H         1 <0>         0.0000
     20 H12        -2.7239    0.5034   -1.4160 H         1 <0>         0.0000
     21 H13        -5.0227   -0.4027    0.4936 H         1 <0>         0.0000
     22 H14        -4.3588    1.2265    0.3466 H         1 <0>         0.0000
     23 H15        -5.5950   -0.3954   -1.9457 H         1 <0>         0.0000
     24 H16        -4.9941    1.2531   -2.0854 H         1 <0>         0.0000
@<TRIPOS>BOND
     1    1    2 2
     2    2    4 1
     3    3    5 1
     4    4    6 1
     5    5    7 1
     6    6    8 1
     7    7    8 1
     8    1    9 1
     9    1   10 1
    10    2   11 1
    11    3   12 1
    12    3   13 1
    13    3   14 1
    14    4   15 1
    15    4   16 1
    16    5   17 1
    17    5   18 1
    18    6   19 1
    19    6   20 1
    20    7   21 1
    21    7   22 1
    22    8   23 1
    23    8   24 1
@<TRIPOS>MOLECULE
1-nonene
   27    26     0     0     0
SMALL
NO_CHARGES

@<TRIPOS>ATOM
      1 C1          1.6764   -4.6654    3.5070 C.2       1 <0>         0.0000
      2 C2          1.9905   -3.6898    2.6475 C.2       1 <0>         0.0000
      3 C3         -2.8068    2.7086   -1.2752 C.3       1 <0>         0.0000
      4 C4          1.3678   -2.3250    2.6632 C.3       1 <0>         0.0000
      5 C5         -2.0766    1.3759   -1.3199 C.3       1 <0>         0.0000
      6 C6          0.7375   -1.9362    1.3216 C.3       1 <0>         0.0000
      7 C7         -1.3589    1.0862   -0.0018 C.3       1 <0>         0.0000
      8 C8          0.0321   -0.5752    1.2952 C.3       1 <0>         0.0000
      9 C9         -0.6527   -0.2710   -0.0390 C.3       1 <0>         0.0000
     10 H1          2.1676   -5.6303    3.4459 H         1 <0>         0.0000
     11 H2          0.9288   -4.5221    4.2792 H         1 <0>         0.0000
     12 H3          2.7498   -3.8834    1.8944 H         1 <0>         0.0000
     13 H4         -2.1135    3.5286   -1.0619 H         1 <0>         0.0000
     14 H5         -3.5703    2.6966   -0.4910 H         1 <0>         0.0000
     15 H6         -3.3025    2.9167   -2.2288 H         1 <0>         0.0000
     16 H7          0.6280   -2.2374    3.4669 H         1 <0>         0.0000
     17 H8          2.1564   -1.5993    2.8983 H         1 <0>         0.0000
     18 H9         -2.7971    0.5782   -1.5349 H         1 <0>         0.0000
     19 H10        -1.3527    1.3900   -2.1430 H         1 <0>         0.0000
     20 H11         1.5207   -1.9460    0.5533 H         1 <0>         0.0000
     21 H12         0.0120   -2.7064    1.0297 H         1 <0>         0.0000
     22 H13        -0.6250    1.8764    0.1984 H         1 <0>         0.0000
     23 H14        -2.0833    1.1014    0.8216 H         1 <0>         0.0000
     24 H15         0.7431    0.2231    1.5383 H         1 <0>         0.0000
     25 H16        -0.7220   -0.5701    2.0925 H         1 <0>         0.0000
     26 H17         0.0851   -0.2674   -0.8488 H         1 <0>         0.0000
     27 H18        -1.3818   -1.0581   -0.2659 H         1 <0>         0.0000
@<TRIPOS>BOND
     1    1    2 2
     2    2    4 1
     3    3    5 1
     4    4    6 1
     5    5    7 1
     6    6    8 1
     7    7    9 1
     8    8    9 1
     9    1   10 1
    10    1   11 1
    11    2   12 1
    12    3   13 1
    13    3   14 1
    14    3   15 1
    15    4   16 1
    16    4   17 1
    17    5   18 1
    18    5   19 1
    19    6   20 1
    20    6   21 1
    21    7   22 1
    22    7   23 1
    23    8   24 1
    24    8   25 1
    25    9   26 1
    26    9   27 1
@<TRIPOS>MOLECULE
1,3-butadiene
   10     9     0     0     0
SMALL
NO_CHARGES

@<TRIPOS>ATOM
      1 C1         -1.0635   -0.9856   -0.6119 C.2       1 <0>         0.0000
      2 C2         -2.2248   -1.9321    2.7408 C.2       1 <0>         0.0000
      3 C3         -1.7559   -1.5851    0.3632 C.2       1 <0>         0.0000
      4 C4         -1.5320   -1.3323    1.7662 C.2       1 <0>         0.0000
      5 H1         -1.2497   -1.1918   -1.6608 H         1 <0>         0.0000
      6 H2         -0.2874   -0.2674   -0.3689 H         1 <0>         0.0000
      7 H3         -2.0388   -1.7261    3.7898 H         1 <0>         0.0000
      8 H4         -3.0010   -2.6500    2.4977 H         1 <0>         0.0000
      9 H5         -2.5287   -2.2995    0.0923 H         1 <0>         0.0000
     10 H6         -0.7600   -0.6170    2.0371 H         1 <0>         0.0000
@<TRIPOS>BOND
     1    1    3 2
     2    2    4 2
     3    3    4 1
     4    1    5 1
     5    1    6 1
     6    2    7 1
     7    2    8 1
     8    3    9 1
     9    4   10 1
@<TRIPOS>MOLECULE
2-methyl-1,3-butadiene
   13    12     0     0     0
SMALL
NO_CHARGES

@<TRIPOS>ATOM
      1 C1         -0.1320   -0.3173    1.0280 C.2       1 <0>         0.0000
      2 C2         -0.9685   -3.9040    0.9358 C.2       1 <0>         0.0000
      3 C3         -0.4458   -1.5741    1.3661 C.2       1 <0>         0.0000
      4 C4         -0.6566   -2.6892    0.4542 C.2       1 <0>         0.0000
      5 C5         -0.5216   -2.4669   -1.0269 C.3       1 <0>         0.0000
      6 H1          0.0010    0.4342    1.7998 H         1 <0>         0.0000
      7 H2         -0.0001    0.0000   -0.0000 H         1 <0>         0.0000
      8 H3         -1.1296   -4.7487    0.2734 H         1 <0>         0.0000
      9 H4         -1.0719   -4.0913    2.0002 H         1 <0>         0.0000
     10 H5         -0.5555   -1.7884    2.4280 H         1 <0>         0.0000
     11 H6         -1.4824   -2.1759   -1.4649 H         1 <0>         0.0000
     12 H7         -0.1890   -3.3714   -1.5487 H         1 <0>         0.0000
     13 H8          0.2146   -1.6834   -1.2364 H         1 <0>         0.0000
@<TRIPOS>BOND
     1    1    3 2
     2    2    4 2
     3    3    4 1
     4    4    5 1
     5    1    6 1
     6    1    7 1
     7    2    8 1
     8    2    9 1
     9    3   10 1
    10    5   11 1
    11    5   12 1
    12    5   13 1
@<TRIPOS>MOLECULE
2,3-methyl-1,3-butadiene
   16    15     0     0     0
SMALL
NO_CHARGES

@<TRIPOS>ATOM
      1 C1         -0.2101    1.5498    0.9966 C.2       1 <0>         0.0000
      2 C2         -2.6984   -0.1663    1.3681 C.2       1 <0>         0.0000
      3 C3         -0.4086    0.3016    0.5347 C.2       1 <0>         0.0000
      4 C4         -1.4612   -0.5919    1.0530 C.2       1 <0>         0.0000
      5 C5          0.4907   -0.2050   -0.5676 C.3       1 <0>         0.0000
      6 C6         -1.1384   -2.0551    1.2414 C.3       1 <0>         0.0000
      7 H1          0.5633    2.2071    0.6162 H         1 <0>         0.0000
      8 H2         -0.8306    1.9604    1.7878 H         1 <0>         0.0000
      9 H3         -3.4482   -0.8540    1.7480 H         1 <0>         0.0000
     10 H4         -3.0155    0.8651    1.2645 H         1 <0>         0.0000
     11 H5          1.3850   -0.7036   -0.1765 H         1 <0>         0.0000
     12 H6          0.8369    0.6220   -1.1972 H         1 <0>         0.0000
     13 H7         -0.0336   -0.9360   -1.1927 H         1 <0>         0.0000
     14 H8         -1.3650   -2.6235    0.3327 H         1 <0>         0.0000
     15 H9         -0.0779   -2.2201    1.4641 H         1 <0>         0.0000
     16 H10        -1.7083   -2.4746    2.0777 H         1 <0>         0.0000
@<TRIPOS>BOND
     1    1    3 2
     2    2    4 2
     3    3    4 1
     4    3    5 1
     5    4    6 1
     6    1    7 1
     7    1    8 1
     8    2    9 1
     9    2   10 1
    10    5   11 1
    11    5   12 1
    12    5   13 1
    13    6   14 1
    14    6   15 1
    15    6   16 1
@<TRIPOS>MOLECULE
1,4-pentadiene
   13    12     0     0     0
SMALL
NO_CHARGES

@<TRIPOS>ATOM
      1 C1          1.3381   -0.0881   -1.7943 C.2       1 <0>         0.0000
      2 C2         -1.7364    0.8447    1.1349 C.2       1 <0>         0.0000
      3 C3          1.2056   -0.3034   -0.4805 C.2       1 <0>         0.0000
      4 C4         -0.5498    0.2291    1.1919 C.2       1 <0>         0.0000
      5 C5         -0.0673   -0.7576    0.1704 C.3       1 <0>         0.0000
      6 H1          2.2887    0.2342   -2.2050 H         1 <0>         0.0000
      7 H2          0.5085   -0.2269   -2.4786 H         1 <0>         0.0000
      8 H3         -2.0300    1.5441    1.9101 H         1 <0>         0.0000
      9 H4         -2.4305    0.6653    0.3213 H         1 <0>         0.0000
     10 H5          2.0722   -0.1547    0.1594 H         1 <0>         0.0000
     11 H6          0.1047    0.4417    2.0337 H         1 <0>         0.0000
     12 H7          0.1177   -1.7160    0.6698 H         1 <0>         0.0000
     13 H8         -0.8423   -0.9463   -0.5830 H         1 <0>         0.0000
@<TRIPOS>BOND
     1    1    3 2
     2    2    4 2
     3    3    5 1
     4    4    5 1
     5    1    6 1
     6    1    7 1
     7    2    8 1
     8    2    9 1
     9    3   10 1
    10    4   11 1
    11    5   12 1
    12    5   13 1
@<TRIPOS>MOLECULE
1,5-hexadiene
   16    15     0     0     0
SMALL
NO_CHARGES

@<TRIPOS>ATOM
      1 C1         -6.6308    3.3691   -1.1698 C.2       1 <0>         0.0000
      2 C2         -2.3774    4.3333   -1.4132 C.2       1 <0>         0.0000
      3 C3         -5.9041    3.3173   -2.2917 C.2       1 <0>         0.0000
      4 C4         -2.9329    3.1236   -1.5461 C.2       1 <0>         0.0000
      5 C5         -4.9964    2.1764   -2.6522 C.3       1 <0>         0.0000
      6 C6         -3.5376    2.6132   -2.8225 C.3       1 <0>         0.0000
      7 H1         -7.2741    4.2136   -0.9490 H         1 <0>         0.0000
      8 H2         -6.5908    2.5574   -0.4518 H         1 <0>         0.0000
      9 H3         -1.9518    4.6617   -0.4716 H         1 <0>         0.0000
     10 H4         -2.3405    5.0162   -2.2548 H         1 <0>         0.0000
     11 H5         -5.9748    4.1412   -2.9972 H         1 <0>         0.0000
     12 H6         -2.9432    2.4575   -0.6872 H         1 <0>         0.0000
     13 H7         -5.3486    1.7535   -3.6010 H         1 <0>         0.0000
     14 H8         -5.0627    1.3714   -1.9093 H         1 <0>         0.0000
     15 H9         -3.4609    3.3622   -3.6208 H         1 <0>         0.0000
     16 H10        -2.9486    1.7479   -3.1508 H         1 <0>         0.0000
@<TRIPOS>BOND
     1    1    3 2
     2    2    4 2
     3    3    5 1
     4    4    6 1
     5    5    6 1
     6    1    7 1
     7    1    8 1
     8    2    9 1
     9    2   10 1
    10    3   11 1
    11    4   12 1
    12    5   13 1
    13    5   14 1
    14    6   15 1
    15    6   16 1
@<TRIPOS>MOLECULE
cyclopentene
   13    13     0     0     0
SMALL
NO_CHARGES

@<TRIPOS>ATOM
      1 C1         -0.4084   -1.1338   -0.0438 C.2       1 <0>         0.0000
      2 C2         -1.1954   -0.0593   -0.1476 C.2       1 <0>         0.0000
      3 C3          1.0104   -0.7586    0.2211 C.3       1 <0>         0.0000
      4 C4         -0.4299    1.2081    0.0310 C.3       1 <0>         0.0000
      5 C5          1.0233    0.7436   -0.0606 C.3       1 <0>         0.0000
      6 H1         -0.7592   -2.1535   -0.1101 H         1 <0>         0.0000
      7 H2         -2.2625   -0.0999   -0.3107 H         1 <0>         0.0000
      8 H3          1.2732   -0.9761    1.2614 H         1 <0>         0.0000
      9 H4          1.7020   -1.2903   -0.4388 H         1 <0>         0.0000
     10 H5         -0.6617    1.9372   -0.7507 H         1 <0>         0.0000
     11 H6         -0.6510    1.6510    1.0075 H         1 <0>         0.0000
     12 H7          1.6737    1.2870    0.6326 H         1 <0>         0.0000
     13 H8          1.4068    0.9267   -1.0730 H         1 <0>         0.0000
@<TRIPOS>BOND
     1    1    2 2
     2    1    3 1
     3    2    4 1
     4    3    5 1
     5    4    5 1
     6    1    6 1
     7    2    7 1
     8    3    8 1
     9    3    9 1
    10    4   10 1
    11    4   11 1
    12    5   12 1
    13    5   13 1
@<TRIPOS>MOLECULE
cyclohexene
   16    16     0     0     0
SMALL
NO_CHARGES

@<TRIPOS>ATOM
      1 C1          0.6947    1.2246   -0.1924 C.2       1 <0>         0.0000
      2 C2         -0.6207    1.2769    0.0589 C.2       1 <0>         0.0000
      3 C3          1.4653   -0.0602   -0.2621 C.3       1 <0>         0.0000
      4 C4         -1.4654    0.0545    0.2623 C.3       1 <0>         0.0000
      5 C5          0.6909   -1.2572    0.2957 C.3       1 <0>         0.0000
      6 C6         -0.7647   -1.2385   -0.1625 C.3       1 <0>         0.0000
      7 H1          1.2422    2.1491   -0.3513 H         1 <0>         0.0000
      8 H2         -1.1122    2.2436    0.1170 H         1 <0>         0.0000
      9 H3          1.7312   -0.2470   -1.3094 H         1 <0>         0.0000
     10 H4          2.4036    0.0473    0.2935 H         1 <0>         0.0000
     11 H5         -1.7388   -0.0040    1.3225 H         1 <0>         0.0000
     12 H6         -2.3975    0.1575   -0.3048 H         1 <0>         0.0000
     13 H7          1.1739   -2.1890   -0.0196 H         1 <0>         0.0000
     14 H8          0.7252   -1.2374    1.3927 H         1 <0>         0.0000
     15 H9         -1.3007   -2.1010    0.2494 H         1 <0>         0.0000
     16 H10        -0.8010   -1.3331   -1.2555 H         1 <0>         0.0000
@<TRIPOS>BOND
     1    1    2 2
     2    1    3 1
     3    2    4 1
     4    3    5 1
     5    4    6 1
     6    5    6 1
     7    1    7 1
     8    2    8 1
     9    3    9 1
    10    3   10 1
    11    4   11 1
    12    4   12 1
    13    5   13 1
    14    5   14 1
    15    6   15 1
    16    6   16 1
@<TRIPOS>MOLECULE
1-methyl-cyclohexene
   19    19     0     0     0
SMALL
NO_CHARGES

@<TRIPOS>ATOM
      1 C1          0.1963    2.0094    0.6416 C.2       1 <0>         0.0000
      2 C2          0.6071    2.4535    1.8421 C.2       1 <0>         0.0000
      3 C3         -0.6330    0.7736    0.4510 C.3       1 <0>         0.0000
      4 C4          0.2913    1.7119    3.1175 C.3       1 <0>         0.0000
      5 C5         -1.2420    0.2490    1.7515 C.3       1 <0>         0.0000
      6 C6         -0.2263    0.2896    2.8870 C.3       1 <0>         0.0000
      7 C7          1.4044    3.7154    1.9912 C.3       1 <0>         0.0000
      8 H1          0.4599    2.5593   -0.2581 H         1 <0>         0.0000
      9 H2         -1.4396    0.9834   -0.2607 H         1 <0>         0.0000
     10 H3         -0.0004   -0.0001   -0.0004 H         1 <0>         0.0000
     11 H4          1.1866    1.6559    3.7482 H         1 <0>         0.0000
     12 H5         -0.4596    2.2859    3.6747 H         1 <0>         0.0000
     13 H6         -2.1139    0.8585    2.0217 H         1 <0>         0.0000
     14 H7         -1.6034   -0.7748    1.6037 H         1 <0>         0.0000
     15 H8          0.6152   -0.3725    2.6458 H         1 <0>         0.0000
     16 H9         -0.6767   -0.0925    3.8101 H         1 <0>         0.0000
     17 H10         0.7292    4.5573    2.1257 H         1 <0>         0.0000
     18 H11         2.0084    3.8709    1.0998 H         1 <0>         0.0000
     19 H12         2.0592    3.6309    2.8558 H         1 <0>         0.0000
@<TRIPOS>BOND
     1    1    2 2
     2    1    3 1
     3    2    4 1
     4    2    7 1
     5    3    5 1
     6    4    6 1
     7    5    6 1
     8    1    8 1
     9    3    9 1
    10    3   10 1
    11    4   11 1
    12    4   12 1
    13    5   13 1
    14    5   14 1
    15    6   15 1
    16    6   16 1
    17    7   17 1
    18    7   18 1
    19    7   19 1
@<TRIPOS>MOLECULE
1,3,5-cycloheptatriene
   15    15     0     0     0
SMALL
NO_CHARGES

@<TRIPOS>ATOM
      1 C1          0.1968   -1.5424   -0.3979 C.2       1 <0>         0.0000
      2 C2         -1.0780   -1.1503   -0.3015 C.2       1 <0>         0.0000
      3 C3          1.3866   -0.8058   -0.0661 C.2       1 <0>         0.0000
      4 C4         -1.5934    0.1110    0.1591 C.2       1 <0>         0.0000
      5 C5          1.5232    0.5100    0.1360 C.2       1 <0>         0.0000
      6 C6         -0.9416    1.2684    0.3222 C.2       1 <0>         0.0000
      7 C7          0.5063    1.6092    0.1483 C.3       1 <0>         0.0000
      8 H1          0.3839   -2.5519   -0.7607 H         1 <0>         0.0000
      9 H2         -1.8454   -1.8660   -0.5924 H         1 <0>         0.0000
     10 H3          2.2892   -1.4140   -0.0279 H         1 <0>         0.0000
     11 H4         -2.6660    0.1105    0.3468 H         1 <0>         0.0000
     12 H5          2.5404    0.8570    0.3215 H         1 <0>         0.0000
     13 H6         -1.5537    2.1169    0.6303 H         1 <0>         0.0000
     14 H7          0.7720    2.2668    0.9870 H         1 <0>         0.0000
     15 H8          0.6229    2.2111   -0.7605 H         1 <0>         0.0000
@<TRIPOS>BOND
     1    1    2 2
     2    1    3 1
     3    2    4 1
     4    3    5 2
     5    4    6 2
     6    5    7 1
     7    6    7 1
     8    1    8 1
     9    2    9 1
    10    3   10 1
    11    4   11 1
    12    5   12 1
    13    6   13 1
    14    7   14 1
    15    7   15 1
@<TRIPOS>MOLECULE
propyne
    7     6     0     0     0
SMALL
NO_CHARGES

@<TRIPOS>ATOM
      1 C1         -0.5942    3.0237   -0.9302 C.1       1 <0>         0.0000
      2 C2         -0.6484    1.8276   -0.8449 C.1       1 <0>         0.0000
      3 C3         -0.7150    0.3705   -0.7408 C.3       1 <0>         0.0000
      4 H1         -0.5459    4.0849   -1.0060 H         1 <0>         0.0000
      5 H2          0.2427   -0.0835   -1.0131 H         1 <0>         0.0000
      6 H3         -0.9575    0.0639    0.2811 H         1 <0>         0.0000
      7 H4         -1.4831   -0.0329   -1.4075 H         1 <0>         0.0000
@<TRIPOS>BOND
     1    1    2 3
     2    2    3 1
     3    1    4 1
     4    3    5 1
     5    3    6 1
     6    3    7 1
@<TRIPOS>MOLECULE
1-butyne
   10     9     0     0     0
SMALL
NO_CHARGES

@<TRIPOS>ATOM
      1 C1          1.3443   -3.0191    1.4503 C.1       1 <0>         0.0000
      2 C2          1.3994   -1.8207    1.4971 C.1       1 <0>         0.0000
      3 C3          1.0319    0.2735    0.2461 C.3       1 <0>         0.0000
      4 C4          1.4682   -0.3553    1.5586 C.3       1 <0>         0.0000
      5 H1          1.2950   -4.0821    1.4092 H         1 <0>         0.0000
      6 H2          1.6540   -0.0746   -0.5856 H         1 <0>         0.0000
      7 H3          1.1067    1.3657    0.2864 H         1 <0>         0.0000
      8 H4         -0.0080    0.0116    0.0261 H         1 <0>         0.0000
      9 H5          0.8280    0.0122    2.3683 H         1 <0>         0.0000
     10 H6          2.4923   -0.0416    1.7893 H         1 <0>         0.0000
@<TRIPOS>BOND
     1    1    2 3
     2    2    4 1
     3    3    4 1
     4    1    5 1
     5    3    6 1
     6    3    7 1
     7    3    8 1
     8    4    9 1
     9    4   10 1
@<TRIPOS>MOLECULE
1-pentyne
   13    12     0     0     0
SMALL
NO_CHARGES

@<TRIPOS>ATOM
      1 C1          1.9579   -1.9542    1.2108 C.1       1 <0>         0.0000
      2 C2          0.9842   -1.4120    0.7644 C.1       1 <0>         0.0000
      3 C3         -1.1353    1.3803   -0.7537 C.3       1 <0>         0.0000
      4 C4         -0.2097   -0.7519    0.2191 C.3       1 <0>         0.0000
      5 C5          0.1020    0.6784   -0.2171 C.3       1 <0>         0.0000
      6 H1          2.8218   -2.4348    1.6066 H         1 <0>         0.0000
      7 H2         -1.9313    1.4013   -0.0025 H         1 <0>         0.0000
      8 H3         -0.8969    2.4135   -1.0250 H         1 <0>         0.0000
      9 H4         -1.5175    0.8744   -1.6461 H         1 <0>         0.0000
     10 H5         -0.5873   -1.3269   -0.6344 H         1 <0>         0.0000
     11 H6         -1.0018   -0.7448    0.9771 H         1 <0>         0.0000
     12 H7          0.8782    0.6746   -0.9923 H         1 <0>         0.0000
     13 H8          0.5026    1.2509    0.6287 H         1 <0>         0.0000
@<TRIPOS>BOND
     1    1    2 3
     2    2    4 1
     3    3    5 1
     4    4    5 1
     5    1    6 1
     6    3    7 1
     7    3    8 1
     8    3    9 1
     9    4   10 1
    10    4   11 1
    11    5   12 1
    12    5   13 1
@<TRIPOS>MOLECULE
1-hexyne
   16    15     0     0     0
SMALL
NO_CHARGES

@<TRIPOS>ATOM
      1 C1          1.7561    2.1241   -2.3553 C.1       1 <0>         0.0000
      2 C2          1.5664    1.3722   -1.4388 C.1       1 <0>         0.0000
      3 C3         -1.8718   -1.1293    1.1779 C.3       1 <0>         0.0000
      4 C4          1.3383    0.4520   -0.3161 C.3       1 <0>         0.0000
      5 C5         -0.3928   -0.8182    1.0126 C.3       1 <0>         0.0000
      6 C6         -0.1448    0.1090   -0.1772 C.3       1 <0>         0.0000
      7 H1          1.9241    2.7913   -3.1681 H         1 <0>         0.0000
      8 H2         -2.2651   -1.5953    0.2691 H         1 <0>         0.0000
      9 H3         -2.4459   -0.2166    1.3675 H         1 <0>         0.0000
     10 H4         -2.0369   -1.8188    2.0120 H         1 <0>         0.0000
     11 H5          1.9187   -0.4649   -0.4716 H         1 <0>         0.0000
     12 H6          1.7023    0.9097    0.6112 H         1 <0>         0.0000
     13 H7         -0.0185   -0.3528    1.9319 H         1 <0>         0.0000
     14 H8          0.1585   -1.7558    0.8755 H         1 <0>         0.0000
     15 H9         -0.5029   -0.3697   -1.0978 H         1 <0>         0.0000
     16 H10        -0.7289    1.0302   -0.0538 H         1 <0>         0.0000
@<TRIPOS>BOND
     1    1    2 3
     2    2    4 1
     3    3    5 1
     4    4    6 1
     5    5    6 1
     6    1    7 1
     7    3    8 1
     8    3    9 1
     9    3   10 1
    10    4   11 1
    11    4   12 1
    12    5   13 1
    13    5   14 1
    14    6   15 1
    15    6   16 1
@<TRIPOS>MOLECULE
1-heptyne
   19    18     0     0     0
SMALL
NO_CHARGES

@<TRIPOS>ATOM
      1 C1          0.6172    1.4588    3.9940 C.1       1 <0>         0.0000
      2 C2          0.5605    0.6915    3.0725 C.1       1 <0>         0.0000
      3 C3         -0.5403   -0.7929   -2.9611 C.3       1 <0>         0.0000
      4 C4          0.4934   -0.2513    1.9473 C.3       1 <0>         0.0000
      5 C5         -0.4724    0.1755   -1.7910 C.3       1 <0>         0.0000
      6 C6          0.0440    0.4506    0.6659 C.3       1 <0>         0.0000
      7 C7          0.0088   -0.5187   -0.5171 C.3       1 <0>         0.0000
      8 H1          0.6681    2.1393    4.8116 H         1 <0>         0.0000
      9 H2         -1.2126   -1.6242   -2.7268 H         1 <0>         0.0000
     10 H3          0.4477   -1.2077   -3.1848 H         1 <0>         0.0000
     11 H4         -0.9161   -0.2954   -3.8608 H         1 <0>         0.0000
     12 H5          1.4780   -0.7085    1.7948 H         1 <0>         0.0000
     13 H6         -0.2031   -1.0620    2.1909 H         1 <0>         0.0000
     14 H7          0.2047    0.9994   -2.0449 H         1 <0>         0.0000
     15 H8         -1.4652    0.6102   -1.6260 H         1 <0>         0.0000
     16 H9         -0.9515    0.8889    0.8122 H         1 <0>         0.0000
     17 H10         0.7243    1.2819    0.4401 H         1 <0>         0.0000
     18 H11         1.0106   -0.9343   -0.6813 H         1 <0>         0.0000
     19 H12        -0.6558   -1.3594   -0.2835 H         1 <0>         0.0000
@<TRIPOS>BOND
     1    1    2 3
     2    2    4 1
     3    3    5 1
     4    4    6 1
     5    5    7 1
     6    6    7 1
     7    1    8 1
     8    3    9 1
     9    3   10 1
    10    3   11 1
    11    4   12 1
    12    4   13 1
    13    5   14 1
    14    5   15 1
    15    6   16 1
    16    6   17 1
    17    7   18 1
    18    7   19 1
@<TRIPOS>MOLECULE
1-octyne
   22    21     0     0     0
SMALL
NO_CHARGES

@<TRIPOS>ATOM
      1 C1         -2.4560    2.8095   -3.1936 C.1       1 <0>         0.0000
      2 C2         -1.8978    1.8252   -2.7925 C.1       1 <0>         0.0000
      3 C3          1.8182   -1.2748    2.9619 C.3       1 <0>         0.0000
      4 C4         -1.2162    0.6181   -2.3049 C.3       1 <0>         0.0000
      5 C5          1.3218   -1.4581    1.5366 C.3       1 <0>         0.0000
      6 C6         -0.7189    0.8070   -0.8718 C.3       1 <0>         0.0000
      7 C7          0.5507   -0.2314    1.0499 C.3       1 <0>         0.0000
      8 C8          0.0244   -0.4332   -0.3721 C.3       1 <0>         0.0000
      9 H1         -2.9522    3.6823   -3.5485 H         1 <0>         0.0000
     10 H2          0.9849   -1.0862    3.6462 H         1 <0>         0.0000
     11 H3          2.5030   -0.4228    3.0181 H         1 <0>         0.0000
     12 H4          2.3532   -2.1647    3.3085 H         1 <0>         0.0000
     13 H5         -1.9047   -0.2337   -2.3500 H         1 <0>         0.0000
     14 H6         -0.3717    0.3842   -2.9636 H         1 <0>         0.0000
     15 H7          2.1786   -1.6447    0.8787 H         1 <0>         0.0000
     16 H8          0.6786   -2.3447    1.4911 H         1 <0>         0.0000
     17 H9         -1.5680    1.0188   -0.2094 H         1 <0>         0.0000
     18 H10        -0.0547    1.6794   -0.8215 H         1 <0>         0.0000
     19 H11         1.2047    0.6486    1.0783 H         1 <0>         0.0000
     20 H12        -0.2885   -0.0322    1.7276 H         1 <0>         0.0000
     21 H13        -0.6487   -1.2988   -0.3951 H         1 <0>         0.0000
     22 H14         0.8613   -0.6559   -1.0452 H         1 <0>         0.0000
@<TRIPOS>BOND
     1    1    2 3
     2    2    4 1
     3    3    5 1
     4    4    6 1
     5    5    7 1
     6    6    8 1
     7    7    8 1
     8    1    9 1
     9    3   10 1
    10    3   11 1
    11    3   12 1
    12    4   13 1
    13    4   14 1
    14    5   15 1
    15    5   16 1
    16    6   17 1
    17    6   18 1
    18    7   19 1
    19    7   20 1
    20    8   21 1
    21    8   22 1
@<TRIPOS>MOLECULE
tetrafluoromethane
    5     4     0     0     0
SMALL
NO_CHARGES

@<TRIPOS>ATOM
      1 C1         -0.0000    0.0000    0.0000 C.3       1 <0>         0.0000
      2 F1          0.9413    0.8517    0.4400 F         1 <0>         0.0000
      3 F2          0.4892   -1.2513    0.0080 F         1 <0>         0.0000
      4 F3         -0.3559    0.3337   -1.2518 F         1 <0>         0.0000
      5 F4         -1.0746    0.0659    0.8038 F         1 <0>         0.0000
@<TRIPOS>BOND
     1    1    2 1
     2    1    3 1
     3    1    4 1
     4    1    5 1
@<TRIPOS>MOLECULE
chloromethane
    5     4     0     0     0
SMALL
NO_CHARGES

@<TRIPOS>ATOM
      1 C1          0.0830   -0.0659   -0.0904 C.3       1 <0>         0.0000
      2 Cl1        -0.9700    0.7711    1.0556 Cl        1 <0>         0.0000
      3 H1          0.7012    0.6694   -0.6100 H         1 <0>         0.0000
      4 H2          0.7190   -0.7662    0.4554 H         1 <0>         0.0000
      5 H3         -0.5332   -0.6084   -0.8107 H         1 <0>         0.0000
@<TRIPOS>BOND
     1    1    2 1
     2    1    3 1
     3    1    4 1
     4    1    5 1
@<TRIPOS>MOLECULE
dichloromethane
    5     4     0     0     0
SMALL
NO_CHARGES

@<TRIPOS>ATOM
      1 C1          0.1401   -0.0330    0.0343 C.3       1 <0>         0.0000
      2 Cl1        -0.5440   -0.1483   -1.5910 Cl        1 <0>         0.0000
      3 Cl2        -1.0675    0.5282    1.1961 Cl        1 <0>         0.0000
      4 H1          0.9746    0.6725    0.0198 H         1 <0>         0.0000
      5 H2          0.4968   -1.0194    0.3407 H         1 <0>         0.0000
@<TRIPOS>BOND
     1    1    2 1
     2    1    3 1
     3    1    4 1
     4    1    5 1
@<TRIPOS>MOLECULE
trichloromethane
    5     4     0     0     0
SMALL
NO_CHARGES

@<TRIPOS>ATOM
      1 C1         -0.0654    0.0828   -0.0478 C.3       1 <0>         0.0000
      2 Cl1        -0.9538   -1.4475   -0.1352 Cl        1 <0>         0.0000
      3 Cl2         0.2491    0.5251    1.6387 Cl        1 <0>         0.0000
      4 Cl3         1.4517   -0.0250   -0.9566 Cl        1 <0>         0.0000
      5 H1         -0.6817    0.8646   -0.4992 H         1 <0>         0.0000
@<TRIPOS>BOND
     1    1    2 1
     2    1    3 1
     3    1    4 1
     4    1    5 1
@<TRIPOS>MOLECULE
tetrachloromethane
    5     4     0     0     0
SMALL
NO_CHARGES

@<TRIPOS>ATOM
      1 C1         -0.0003   -0.0003    0.0001 C.3       1 <0>         0.0000
      2 Cl1         1.6167    0.7005    0.2651 Cl        1 <0>         0.0000
      3 Cl2         0.1223   -1.7773   -0.0365 Cl        1 <0>         0.0000
      4 Cl3        -0.6529    0.5829   -1.5520 Cl        1 <0>         0.0000
      5 Cl4        -1.0857    0.4943    1.3234 Cl        1 <0>         0.0000
@<TRIPOS>BOND
     1    1    2 1
     2    1    3 1
     3    1    4 1
     4    1    5 1
@<TRIPOS>MOLECULE
chloroethane
    8     7     0     0     0
SMALL
NO_CHARGES

@<TRIPOS>ATOM
      1 C1          0.1543   -0.7247    0.8062 C.3       1 <0>         0.0000
      2 C2          1.3672   -0.3680    1.6395 C.3       1 <0>         0.0000
      3 Cl1         2.8321   -0.3570    0.6342 Cl        1 <0>         0.0000
      4 H1          0.0170    0.0099    0.0066 H         1 <0>         0.0000
      5 H2          0.2678   -1.7101    0.3424 H         1 <0>         0.0000
      6 H3         -0.7560   -0.7343    1.4146 H         1 <0>         0.0000
      7 H4          1.5144   -1.0958    2.4424 H         1 <0>         0.0000
      8 H5          1.2550    0.6252    2.0832 H         1 <0>         0.0000
@<TRIPOS>BOND
     1    1    2 1
     2    2    3 1
     3    1    4 1
     4    1    5 1
     5    1    6 1
     6    2    7 1
     7    2    8 1
@<TRIPOS>MOLECULE
1,1-dichloroethane
    8     7     0     0     0
SMALL
NO_CHARGES

@<TRIPOS>ATOM
      1 C1         -0.4712    0.6837    0.7145 C.3       1 <0>         0.0000
      2 C2         -0.0877    0.3252    2.1389 C.3       1 <0>         0.0000
      3 Cl1        -0.8870    1.4225    3.2882 Cl        1 <0>         0.0000
      4 Cl2         1.6769    0.4133    2.3441 Cl        1 <0>         0.0000
      5 H1         -0.1652    1.7036    0.4553 H         1 <0>         0.0000
      6 H2         -0.0003   -0.0003    0.0000 H         1 <0>         0.0000
      7 H3         -1.5552    0.6115    0.5728 H         1 <0>         0.0000
      8 H4         -0.4016   -0.6948    2.3770 H         1 <0>         0.0000
@<TRIPOS>BOND
     1    1    2 1
     2    2    3 1
     3    2    4 1
     4    1    5 1
     5    1    6 1
     6    1    7 1
     7    2    8 1
@<TRIPOS>MOLECULE
1,2-dichloroethane
    8     7     0     0     0
SMALL
NO_CHARGES

@<TRIPOS>ATOM
      1 C1          0.4803    0.4213    0.4301 C.3       1 <0>         0.0000
      2 C2         -0.5454   -0.5059   -0.1994 C.3       1 <0>         0.0000
      3 Cl1         1.9125    0.6263   -0.6070 Cl        1 <0>         0.0000
      4 Cl2        -1.1473    0.1277   -1.7502 Cl        1 <0>         0.0000
      5 H1          0.0600    1.4124    0.6275 H         1 <0>         0.0000
      6 H2          0.8293    0.0039    1.3793 H         1 <0>         0.0000
      7 H3         -1.4110   -0.6105    0.4615 H         1 <0>         0.0000
      8 H4         -0.1309   -1.5028   -0.3786 H         1 <0>         0.0000
@<TRIPOS>BOND
     1    1    2 1
     2    1    3 1
     3    2    4 1
     4    1    5 1
     5    1    6 1
     6    2    7 1
     7    2    8 1
@<TRIPOS>MOLECULE
1,1,1-trichloroethane
    8     7     0     0     0
SMALL
NO_CHARGES

@<TRIPOS>ATOM
      1 C1          1.0245    0.2811   -0.2703 C.3       1 <0>         0.0000
      2 C2          1.2871    1.7565    0.0012 C.3       1 <0>         0.0000
      3 Cl1         0.1596    2.7554   -0.9573 Cl        1 <0>         0.0000
      4 Cl2         1.0484    2.1022    1.7366 Cl        1 <0>         0.0000
      5 Cl3         2.9647    2.1642   -0.4534 Cl        1 <0>         0.0000
      6 H1          1.7029   -0.3597    0.3053 H         1 <0>         0.0000
      7 H2         -0.0001    0.0000   -0.0002 H         1 <0>         0.0000
      8 H3          1.1631    0.0375   -1.3305 H         1 <0>         0.0000
@<TRIPOS>BOND
     1    1    2 1
     2    2    3 1
     3    2    4 1
     4    2    5 1
     5    1    6 1
     6    1    7 1
     7    1    8 1
@<TRIPOS>MOLECULE
1,1,2-trichloroethane
    8     7     0     0     0
SMALL
NO_CHARGES

@<TRIPOS>ATOM
      1 C1         -0.1944    0.6220    0.4658 C.3       1 <0>         0.0000
      2 C2          0.4262   -0.4924   -0.3724 C.3       1 <0>         0.0000
      3 Cl1        -1.9773    0.6014    0.4732 Cl        1 <0>         0.0000
      4 Cl2        -0.0250   -0.3618   -2.0906 Cl        1 <0>         0.0000
      5 Cl3         0.0054   -2.1067    0.2521 Cl        1 <0>         0.0000
      6 H1          0.1335    0.5476    1.5078 H         1 <0>         0.0000
      7 H2          0.1153    1.6033    0.0916 H         1 <0>         0.0000
      8 H3          1.5163   -0.4134   -0.3274 H         1 <0>         0.0000
@<TRIPOS>BOND
     1    1    2 1
     2    1    3 1
     3    2    4 1
     4    2    5 1
     5    1    6 1
     6    1    7 1
     7    2    8 1
@<TRIPOS>MOLECULE
1,1,2,2-tetrachloroethane
    8     7     0     0     0
SMALL
NO_CHARGES

@<TRIPOS>ATOM
      1 C1          0.4211    0.2029   -0.6170 C.3       1 <0>         0.0000
      2 C2         -0.4361    0.0140    0.6394 C.3       1 <0>         0.0000
      3 Cl1         1.5836   -1.1264   -0.8838 Cl        1 <0>         0.0000
      4 Cl2        -0.6002    0.3914   -2.0717 Cl        1 <0>         0.0000
      5 Cl3        -1.4326   -1.4674    0.5967 Cl        1 <0>         0.0000
      6 Cl4         0.5748   -0.0003    2.1131 Cl        1 <0>         0.0000
      7 H1          1.0081    1.1231   -0.5366 H         1 <0>         0.0000
      8 H2         -1.1274    0.8547    0.7527 H         1 <0>         0.0000
@<TRIPOS>BOND
     1    1    2 1
     2    1    3 1
     3    1    4 1
     4    2    5 1
     5    2    6 1
     6    1    7 1
     7    2    8 1
@<TRIPOS>MOLECULE
1,1,1,2-tetrachloroethane
    8     7     0     0     0
SMALL
NO_CHARGES

@<TRIPOS>ATOM
      1 C1         -0.2264   -0.3196    0.7145 C.3       1 <0>         0.0000
      2 C2          0.1493    0.1837   -0.6821 C.3       1 <0>         0.0000
      3 Cl1         0.2860    0.7750    2.0295 Cl        1 <0>         0.0000
      4 Cl2         1.9206    0.3779   -0.8496 Cl        1 <0>         0.0000
      5 Cl3        -0.3946   -1.0246   -1.8938 Cl        1 <0>         0.0000
      6 Cl4        -0.6548    1.7393   -1.0509 Cl        1 <0>         0.0000
      7 H1          0.2327   -1.2929    0.9204 H         1 <0>         0.0000
      8 H2         -1.3112   -0.4397    0.8121 H         1 <0>         0.0000
@<TRIPOS>BOND
     1    1    2 1
     2    1    3 1
     3    2    4 1
     4    2    5 1
     5    2    6 1
     6    1    7 1
     7    1    8 1
@<TRIPOS>MOLECULE
pentachloroethane
    8     7     0     0     0
SMALL
NO_CHARGES

@<TRIPOS>ATOM
      1 C1         -0.4928    0.4027   -0.4760 C.3       1 <0>         0.0000
      2 C2          0.4490   -0.4711    0.3773 C.3       1 <0>         0.0000
      3 Cl1        -1.9284    0.9734    0.4356 Cl        1 <0>         0.0000
      4 Cl2         0.3273    1.8413   -1.1653 Cl        1 <0>         0.0000
      5 Cl3         1.8464   -1.0375   -0.6069 Cl        1 <0>         0.0000
      6 Cl4        -0.4097   -1.9448    0.9549 Cl        1 <0>         0.0000
      7 Cl5         1.0870    0.4037    1.8076 Cl        1 <0>         0.0000
      8 H1         -0.8776   -0.1672   -1.3280 H         1 <0>         0.0000
@<TRIPOS>BOND
     1    1    2 1
     2    1    3 1
     3    1    4 1
     4    2    5 1
     5    2    6 1
     6    2    7 1
     7    1    8 1
@<TRIPOS>MOLECULE
1-chloropropane
   11    10     0     0     0
SMALL
NO_CHARGES

@<TRIPOS>ATOM
      1 C1          0.3674    0.5015    0.9011 C.3       1 <0>         0.0000
      2 C2          0.8898   -0.5275    1.8937 C.3       1 <0>         0.0000
      3 C3          1.5185    0.0929    3.1358 C.3       1 <0>         0.0000
      4 Cl1         0.3557    1.0812    4.0495 Cl        1 <0>         0.0000
      5 H1          1.1610    1.1922    0.5987 H         1 <0>         0.0000
      6 H2         -0.0044   -0.0003    0.0020 H         1 <0>         0.0000
      7 H3         -0.4575    1.0852    1.3200 H         1 <0>         0.0000
      8 H4          0.0767   -1.2052    2.1794 H         1 <0>         0.0000
      9 H5          1.6480   -1.1389    1.3902 H         1 <0>         0.0000
     10 H6          2.3682    0.7300    2.8725 H         1 <0>         0.0000
     11 H7          1.8751   -0.6925    3.8090 H         1 <0>         0.0000
@<TRIPOS>BOND
     1    1    2 1
     2    2    3 1
     3    3    4 1
     4    1    5 1
     5    1    6 1
     6    1    7 1
     7    2    8 1
     8    2    9 1
     9    3   10 1
    10    3   11 1
@<TRIPOS>MOLECULE
2-chloropropane
   11    10     0     0     0
SMALL
NO_CHARGES

@<TRIPOS>ATOM
      1 C1          0.8645   -0.5428    0.3972 C.3       1 <0>         0.0000
      2 C2          1.1975    1.1739    2.2084 C.3       1 <0>         0.0000
      3 C3          1.0062   -0.3025    1.8932 C.3       1 <0>         0.0000
      4 Cl1         2.3974   -1.2326    2.5189 Cl        1 <0>         0.0000
      5 H1          1.7438   -0.1776   -0.1445 H         1 <0>         0.0000
      6 H2          0.7663   -1.6131    0.1865 H         1 <0>         0.0000
      7 H3         -0.0188   -0.0387   -0.0102 H         1 <0>         0.0000
      8 H4          2.0833    1.5722    1.7019 H         1 <0>         0.0000
      9 H5          1.3356    1.3232    3.2845 H         1 <0>         0.0000
     10 H6          0.3318    1.7681    1.8958 H         1 <0>         0.0000
     11 H7          0.1164   -0.6755    2.4103 H         1 <0>         0.0000
@<TRIPOS>BOND
     1    1    3 1
     2    2    3 1
     3    3    4 1
     4    1    5 1
     5    1    6 1
     6    1    7 1
     7    2    8 1
     8    2    9 1
     9    2   10 1
    10    3   11 1
@<TRIPOS>MOLECULE
1,2-dichloropropane
   11    10     0     0     0
SMALL
NO_CHARGES

@<TRIPOS>ATOM
      1 C1          0.8719   -0.5290    0.4006 C.3       1 <0>         0.0000
      2 C2          2.5540   -0.5610    2.3257 C.3       1 <0>         0.0000
      3 C3          1.2565    0.0257    1.7670 C.3       1 <0>         0.0000
      4 Cl1         2.5040   -2.3281    2.5464 Cl        1 <0>         0.0000
      5 Cl2        -0.0979   -0.2068    2.9138 Cl        1 <0>         0.0000
      6 H1          0.7259   -1.6139    0.4186 H         1 <0>         0.0000
      7 H2         -0.0613   -0.0759    0.0481 H         1 <0>         0.0000
      8 H3          1.6476   -0.3036   -0.3389 H         1 <0>         0.0000
      9 H4          3.3873   -0.3470    1.6488 H         1 <0>         0.0000
     10 H5          2.7940   -0.1176    3.2976 H         1 <0>         0.0000
     11 H6          1.3857    1.1097    1.6751 H         1 <0>         0.0000
@<TRIPOS>BOND
     1    1    3 1
     2    2    3 1
     3    2    4 1
     4    3    5 1
     5    1    6 1
     6    1    7 1
     7    1    8 1
     8    2    9 1
     9    2   10 1
    10    3   11 1
@<TRIPOS>MOLECULE
1,3-dichloropropane
   11    10     0     0     0
SMALL
NO_CHARGES

@<TRIPOS>ATOM
      1 C1         -0.1595   -0.1129    0.6213 C.3       1 <0>         0.0000
      2 C2          0.9879    0.8165    0.2315 C.3       1 <0>         0.0000
      3 C3         -0.9083   -0.7601   -0.5415 C.3       1 <0>         0.0000
      4 Cl1         0.4298    2.1969   -0.7409 Cl        1 <0>         0.0000
      5 Cl2         0.1517   -1.7926   -1.5281 Cl        1 <0>         0.0000
      6 H1          0.2397   -0.9015    1.2716 H         1 <0>         0.0000
      7 H2         -0.8815    0.4470    1.2291 H         1 <0>         0.0000
      8 H3          1.4557    1.2259    1.1323 H         1 <0>         0.0000
      9 H4          1.7619    0.2945   -0.3378 H         1 <0>         0.0000
     10 H5         -1.3622   -0.0153   -1.2010 H         1 <0>         0.0000
     11 H6         -1.7105   -1.3975   -0.1564 H         1 <0>         0.0000
@<TRIPOS>BOND
     1    1    2 1
     2    1    3 1
     3    2    4 1
     4    3    5 1
     5    1    6 1
     6    1    7 1
     7    2    8 1
     8    2    9 1
     9    3   10 1
    10    3   11 1
@<TRIPOS>MOLECULE
1-chlorobutane
   14    13     0     0     0
SMALL
NO_CHARGES

@<TRIPOS>ATOM
      1 C1         -0.1172    0.5383    0.9457 C.3       1 <0>         0.0000
      2 C2          0.5893   -0.2070    2.0669 C.3       1 <0>         0.0000
      3 C3          0.4429    0.5211    3.4031 C.3       1 <0>         0.0000
      4 C4          1.1235   -0.2515    4.5254 C.3       1 <0>         0.0000
      5 Cl1         0.9565    0.6185    6.0677 Cl        1 <0>         0.0000
      6 H1         -1.1823    0.6615    1.1668 H         1 <0>         0.0000
      7 H2          0.3204    1.5333    0.8174 H         1 <0>         0.0000
      8 H3         -0.0229    0.0006   -0.0031 H         1 <0>         0.0000
      9 H4          1.6509   -0.3132    1.8149 H         1 <0>         0.0000
     10 H5          0.1717   -1.2176    2.1458 H         1 <0>         0.0000
     11 H6          0.8809    1.5238    3.3227 H         1 <0>         0.0000
     12 H7         -0.6218    0.6512    3.6335 H         1 <0>         0.0000
     13 H8          2.1925   -0.3754    4.3281 H         1 <0>         0.0000
     14 H9          0.6749   -1.2413    4.6523 H         1 <0>         0.0000
@<TRIPOS>BOND
     1    1    2 1
     2    2    3 1
     3    3    4 1
     4    4    5 1
     5    1    6 1
     6    1    7 1
     7    1    8 1
     8    2    9 1
     9    2   10 1
    10    3   11 1
    11    3   12 1
    12    4   13 1
    13    4   14 1
@<TRIPOS>MOLECULE
2-chlorobutane
   14    13     0     0     0
SMALL
NO_CHARGES

@<TRIPOS>ATOM
      1 C1          0.7302    0.2079    1.7967 C.3       1 <0>         0.0000
      2 C2         -0.6643   -0.1712   -1.8213 C.3       1 <0>         0.0000
      3 C3          0.4931    0.4908    0.3189 C.3       1 <0>         0.0000
      4 C4         -0.4823   -0.4901   -0.3421 C.3       1 <0>         0.0000
      5 Cl1         0.0944   -2.1766   -0.1809 Cl        1 <0>         0.0000
      6 H1         -0.2228    0.2089    2.3356 H         1 <0>         0.0000
      7 H2          1.3713    0.9651    2.2574 H         1 <0>         0.0000
      8 H3          1.1964   -0.7725    1.9377 H         1 <0>         0.0000
      9 H4          0.2926   -0.2114   -2.3531 H         1 <0>         0.0000
     10 H5         -1.3349   -0.8974   -2.2930 H         1 <0>         0.0000
     11 H6         -1.0929    0.8264   -1.9680 H         1 <0>         0.0000
     12 H7          1.4551    0.4868   -0.2082 H         1 <0>         0.0000
     13 H8          0.0913    1.5079    0.2296 H         1 <0>         0.0000
     14 H9         -1.4559   -0.4410    0.1574 H         1 <0>         0.0000
@<TRIPOS>BOND
     1    1    3 1
     2    2    4 1
     3    3    4 1
     4    4    5 1
     5    1    6 1
     6    1    7 1
     7    1    8 1
     8    2    9 1
     9    2   10 1
    10    2   11 1
    11    3   12 1
    12    3   13 1
    13    4   14 1
@<TRIPOS>MOLECULE
2-chloro-2-methylpropane
   17    16     0     0     0
SMALL
NO_CHARGES

@<TRIPOS>ATOM
      1 C1         -0.4836   -0.9400    0.2863 C.3       1 <0>         0.0000
      2 C2         -1.3062   -3.8527   -0.4674 C.3       1 <0>         0.0000
      3 C3         -3.2923   -2.8755   -1.6369 C.3       1 <0>         0.0000
      4 C4         -1.5208   -1.3246   -0.7633 C.3       1 <0>         0.0000
      5 C5         -2.2630   -2.6574   -0.5198 C.3       1 <0>         0.0000
      6 Cl1        -3.1599   -2.5830    1.0404 Cl        1 <0>         0.0000
      7 H1         -0.9192   -0.8757    1.2872 H         1 <0>         0.0000
      8 H2         -0.0625    0.0421    0.0464 H         1 <0>         0.0000
      9 H3          0.3455   -1.6529    0.3114 H         1 <0>         0.0000
     10 H4         -0.5563   -3.7279    0.3224 H         1 <0>         0.0000
     11 H5         -0.7640   -3.9870   -1.4094 H         1 <0>         0.0000
     12 H6         -1.8514   -4.7805   -0.2599 H         1 <0>         0.0000
     13 H7         -3.9961   -2.0377   -1.7046 H         1 <0>         0.0000
     14 H8         -2.8066   -2.9828   -2.6137 H         1 <0>         0.0000
     15 H9         -3.8785   -3.7841   -1.4575 H         1 <0>         0.0000
     16 H10        -1.0131   -1.3691   -1.7358 H         1 <0>         0.0000
     17 H11        -2.2511   -0.5080   -0.8393 H         1 <0>         0.0000
@<TRIPOS>BOND
     1    1    4 1
     2    2    5 1
     3    3    5 1
     4    4    5 1
     5    5    6 1
     6    1    7 1
     7    1    8 1
     8    1    9 1
     9    2   10 1
    10    2   11 1
    11    2   12 1
    12    3   13 1
    13    3   14 1
    14    3   15 1
    15    4   16 1
    16    4   17 1
@<TRIPOS>MOLECULE
1,4-dichlorobutane
   14    13     0     0     0
SMALL
NO_CHARGES

@<TRIPOS>ATOM
      1 C1         -0.6108   -0.4634    0.0323 C.3       1 <0>         0.0000
      2 C2          0.5769    0.5054   -0.0200 C.3       1 <0>         0.0000
      3 C3         -0.8926   -0.9912    1.4362 C.3       1 <0>         0.0000
      4 C4          0.8129    1.0904   -1.4097 C.3       1 <0>         0.0000
      5 Cl1         0.4879   -1.8965    2.0981 Cl        1 <0>         0.0000
      6 Cl2         1.1753   -0.1698   -2.6114 Cl        1 <0>         0.0000
      7 H1         -0.4481   -1.3073   -0.6480 H         1 <0>         0.0000
      8 H2         -1.5086    0.0584   -0.3216 H         1 <0>         0.0000
      9 H3          1.4915    0.0106    0.3267 H         1 <0>         0.0000
     10 H4          0.3864    1.3361    0.6709 H         1 <0>         0.0000
     11 H5         -1.1233   -0.1747    2.1273 H         1 <0>         0.0000
     12 H6         -1.7473   -1.6738    1.4161 H         1 <0>         0.0000
     13 H7         -0.0618    1.6477   -1.7585 H         1 <0>         0.0000
     14 H8          1.6674    1.7734   -1.3893 H         1 <0>         0.0000
@<TRIPOS>BOND
     1    1    2 1
     2    1    3 1
     3    2    4 1
     4    3    5 1
     5    4    6 1
     6    1    7 1
     7    1    8 1
     8    2    9 1
     9    2   10 1
    10    3   11 1
    11    3   12 1
    12    4   13 1
    13    4   14 1
@<TRIPOS>MOLECULE
1-chloropentane
   17    16     0     0     0
SMALL
NO_CHARGES

@<TRIPOS>ATOM
      1 C1         -0.2385   -0.7112   -0.9459 C.3       1 <0>         0.0000
      2 C2          0.9417   -0.5154   -1.8855 C.3       1 <0>         0.0000
      3 C3          0.9814    0.9086   -2.4409 C.3       1 <0>         0.0000
      4 C4          2.1517    1.1572   -3.3996 C.3       1 <0>         0.0000
      5 C5          2.2712    2.5762   -3.9476 C.3       1 <0>         0.0000
      6 Cl1         0.8163    3.0759   -4.8387 Cl        1 <0>         0.0000
      7 H1         -1.1845   -0.5027   -1.4559 H         1 <0>         0.0000
      8 H2         -0.1629   -0.0496   -0.0771 H         1 <0>         0.0000
      9 H3         -0.2676   -1.7439   -0.5844 H         1 <0>         0.0000
     10 H4          1.8706   -0.7315   -1.3454 H         1 <0>         0.0000
     11 H5          0.8614   -1.2406   -2.7022 H         1 <0>         0.0000
     12 H6          1.0738    1.6151   -1.6062 H         1 <0>         0.0000
     13 H7          0.0305    1.1405   -2.9343 H         1 <0>         0.0000
     14 H8          2.0633    0.4669   -4.2478 H         1 <0>         0.0000
     15 H9          3.0838    0.8913   -2.8850 H         1 <0>         0.0000
     16 H10         2.4014    3.2825   -3.1217 H         1 <0>         0.0000
     17 H11         3.1312    2.6833   -4.6142 H         1 <0>         0.0000
@<TRIPOS>BOND
     1    1    2 1
     2    2    3 1
     3    3    4 1
     4    4    5 1
     5    5    6 1
     6    1    7 1
     7    1    8 1
     8    1    9 1
     9    2   10 1
    10    2   11 1
    11    3   12 1
    12    3   13 1
    13    4   14 1
    14    4   15 1
    15    5   16 1
    16    5   17 1
@<TRIPOS>MOLECULE
1-chlorohexane
   20    19     0     0     0
SMALL
NO_CHARGES

@<TRIPOS>ATOM
      1 C1          0.6567   -0.6720    0.5625 C.3       1 <0>         0.0000
      2 C2          0.0265   -1.0251    1.9002 C.3       1 <0>         0.0000
      3 C3          0.9415   -1.9260    2.7295 C.3       1 <0>         0.0000
      4 C4          0.2900   -2.3065    4.0612 C.3       1 <0>         0.0000
      5 C5          1.2206   -3.1861    4.9017 C.3       1 <0>         0.0000
      6 C6          0.5873   -3.6597    6.2060 C.3       1 <0>         0.0000
      7 Cl1         0.1397   -2.3014    7.2633 Cl        1 <0>         0.0000
      8 H1          0.8833   -1.5742   -0.0147 H         1 <0>         0.0000
      9 H2          1.5915   -0.1238    0.7166 H         1 <0>         0.0000
     10 H3         -0.0124   -0.0419   -0.0324 H         1 <0>         0.0000
     11 H4         -0.1873   -0.1021    2.4517 H         1 <0>         0.0000
     12 H5         -0.9317   -1.5278    1.7248 H         1 <0>         0.0000
     13 H6          1.8911   -1.4106    2.9194 H         1 <0>         0.0000
     14 H7          1.1747   -2.8346    2.1610 H         1 <0>         0.0000
     15 H8         -0.6472   -2.8433    3.8702 H         1 <0>         0.0000
     16 H9          0.0341   -1.3930    4.6097 H         1 <0>         0.0000
     17 H10         2.1522   -2.6468    5.1136 H         1 <0>         0.0000
     18 H11         1.4963   -4.0716    4.3156 H         1 <0>         0.0000
     19 H12        -0.3138   -4.2505    6.0162 H         1 <0>         0.0000
     20 H13         1.2941   -4.2829    6.7620 H         1 <0>         0.0000
@<TRIPOS>BOND
     1    1    2 1
     2    2    3 1
     3    3    4 1
     4    4    5 1
     5    5    6 1
     6    6    7 1
     7    1    8 1
     8    1    9 1
     9    1   10 1
    10    2   11 1
    11    2   12 1
    12    3   13 1
    13    3   14 1
    14    4   15 1
    15    4   16 1
    16    5   17 1
    17    5   18 1
    18    6   19 1
    19    6   20 1
@<TRIPOS>MOLECULE
1-chloroheptane
   23    22     0     0     0
SMALL
NO_CHARGES

@<TRIPOS>ATOM
      1 C1         -3.6198    0.6183    0.4868 C.3       1 <0>         0.0000
      2 C2         -2.1408    0.7423    0.8161 C.3       1 <0>         0.0000
      3 C3         -1.2698    0.1231   -0.2770 C.3       1 <0>         0.0000
      4 C4          0.2167    0.2192    0.0740 C.3       1 <0>         0.0000
      5 C5          1.0874   -0.3672   -1.0397 C.3       1 <0>         0.0000
      6 C6          2.5870   -0.3083   -0.7339 C.3       1 <0>         0.0000
      7 C7          3.4469   -0.9181   -1.8337 C.3       1 <0>         0.0000
      8 Cl1         5.1686   -0.8368   -1.3881 Cl        1 <0>         0.0000
      9 H1         -3.8379    1.1064   -0.4683 H         1 <0>         0.0000
     10 H2         -3.9172   -0.4321    0.4073 H         1 <0>         0.0000
     11 H3         -4.2345    1.0920    1.2588 H         1 <0>         0.0000
     12 H4         -1.9432    0.2482    1.7744 H         1 <0>         0.0000
     13 H5         -1.8873    1.8017    0.9388 H         1 <0>         0.0000
     14 H6         -1.4570    0.6347   -1.2290 H         1 <0>         0.0000
     15 H7         -1.5467   -0.9293   -0.4156 H         1 <0>         0.0000
     16 H8          0.3977   -0.3150    1.0134 H         1 <0>         0.0000
     17 H9          0.4877    1.2691    0.2385 H         1 <0>         0.0000
     18 H10         0.9058    0.1904   -1.9671 H         1 <0>         0.0000
     19 H11         0.7924   -1.4058   -1.2331 H         1 <0>         0.0000
     20 H12         2.8643    0.7450   -0.5983 H         1 <0>         0.0000
     21 H13         2.7855   -0.8120    0.2203 H         1 <0>         0.0000
     22 H14         3.2069   -1.9719   -1.9968 H         1 <0>         0.0000
     23 H15         3.3230   -0.3791   -2.7775 H         1 <0>         0.0000
@<TRIPOS>BOND
     1    1    2 1
     2    2    3 1
     3    3    4 1
     4    4    5 1
     5    5    6 1
     6    6    7 1
     7    7    8 1
     8    1    9 1
     9    1   10 1
    10    1   11 1
    11    2   12 1
    12    2   13 1
    13    3   14 1
    14    3   15 1
    15    4   16 1
    16    4   17 1
    17    5   18 1
    18    5   19 1
    19    6   20 1
    20    6   21 1
    21    7   22 1
    22    7   23 1
@<TRIPOS>MOLECULE
1,1-dichloroethene
    6     5     0     0     0
SMALL
NO_CHARGES

@<TRIPOS>ATOM
      1 C1         -0.9590    0.0622   -0.5384 C.2       1 <0>         0.0000
      2 C2         -1.7399   -1.0198   -0.7615 C.2       1 <0>         0.0000
      3 Cl1        -1.2827   -2.5972   -0.2096 Cl        1 <0>         0.0000
      4 Cl2        -3.2438   -0.8922   -1.6121 Cl        1 <0>         0.0000
      5 H1         -1.2338    1.0723   -0.8817 H         1 <0>         0.0000
      6 H2          0.0000    0.0000    0.0000 H         1 <0>         0.0000
@<TRIPOS>BOND
     1    1    2 2
     2    2    3 1
     3    2    4 1
     4    1    5 1
     5    1    6 1
@<TRIPOS>MOLECULE
Z-1,2-dichloroethene
    6     5     0     0     0
SMALL
NO_CHARGES

@<TRIPOS>ATOM
      1 C1          0.6316   -0.0857    0.1906 C.2       1 <0>         0.0000
      2 C2         -0.6314    0.0855   -0.1906 C.2       1 <0>         0.0000
      3 Cl1         1.2348    0.5015    1.6820 Cl        1 <0>         0.0000
      4 Cl2        -1.7843    0.9104    0.7704 Cl        1 <0>         0.0000
      5 H1          1.3862   -0.6008   -0.3889 H         1 <0>         0.0000
      6 H2         -1.0474   -0.2710   -1.1234 H         1 <0>         0.0000
@<TRIPOS>BOND
     1    1    2 2
     2    1    3 1
     3    2    4 1
     4    1    5 1
     5    2    6 1
@<TRIPOS>MOLECULE
E-1,2-dichloroethene
    6     5     0     0     0
SMALL
NO_CHARGES

@<TRIPOS>ATOM
      1 C1          0.6316   -0.0857    0.1906 C.2       1 <0>         0.0000
      2 C2         -0.6314    0.0855   -0.1906 C.2       1 <0>         0.0000
      3 Cl1         1.2348    0.5015    1.6820 Cl        1 <0>         0.0000
      4 Cl2        -1.2353   -0.5005   -1.6824 Cl        1 <0>         0.0000
      5 H1          1.3862   -0.6008   -0.3889 H         1 <0>         0.0000
      6 H2         -1.3859    0.6000    0.3893 H         1 <0>         0.0000
@<TRIPOS>BOND
     1    1    2 2
     2    1    3 1
     3    2    4 1
     4    1    5 1
     5    2    6 1
@<TRIPOS>MOLECULE
trichloroethene
    6     5     0     0     0
SMALL
NO_CHARGES

@<TRIPOS>ATOM
      1 C1         -0.2424    0.3060    0.5885 C.2       1 <0>         0.0000
      2 C2          0.2375   -0.3834   -0.4499 C.2       1 <0>         0.0000
      3 Cl1        -0.7978    1.9275    0.5399 Cl        1 <0>         0.0000
      4 Cl2         0.7818   -2.0179   -0.3331 Cl        1 <0>         0.0000
      5 Cl3         0.3333    0.3690   -2.0054 Cl        1 <0>         0.0000
      6 H1         -0.3287   -0.1033    1.5875 H         1 <0>         0.0000
@<TRIPOS>BOND
     1    1    2 2
     2    1    3 1
     3    2    4 1
     4    2    5 1
     5    1    6 1
@<TRIPOS>MOLECULE
tetrachloroethene
    6     5     0     0     0
SMALL
NO_CHARGES

@<TRIPOS>ATOM
      1 C1         -0.2019   -0.6401    0.0292 C.2       1 <0>         0.0000
      2 C2          0.2020    0.6401   -0.0293 C.2       1 <0>         0.0000
      3 Cl1         0.9124   -1.9725    0.0232 Cl        1 <0>         0.0000
      4 Cl2        -1.8781   -1.0879    0.1163 Cl        1 <0>         0.0000
      5 Cl3        -0.9124    1.9725   -0.0233 Cl        1 <0>         0.0000
      6 Cl4         1.8780    1.0880   -0.1160 Cl        1 <0>         0.0000
@<TRIPOS>BOND
     1    1    2 2
     2    1    3 1
     3    1    4 1
     4    2    5 1
     5    2    6 1
@<TRIPOS>MOLECULE
3-chloropropene
    9     8     0     0     0
SMALL
NO_CHARGES

@<TRIPOS>ATOM
      1 C1         -0.3495    1.3198    0.4079 C.2       1 <0>         0.0000
      2 C2         -0.3587   -0.0178    0.4246 C.2       1 <0>         0.0000
      3 C3          0.3237   -0.8666   -0.5954 C.3       1 <0>         0.0000
      4 Cl1         1.5185   -1.9185    0.1927 Cl        1 <0>         0.0000
      5 H1         -0.8716    1.8824    1.1742 H         1 <0>         0.0000
      6 H2          0.1752    1.8742   -0.3623 H         1 <0>         0.0000
      7 H3         -0.9069   -0.5227    1.2161 H         1 <0>         0.0000
      8 H4         -0.4050   -1.5045   -1.1039 H         1 <0>         0.0000
      9 H5          0.8482   -0.2723   -1.3497 H         1 <0>         0.0000
@<TRIPOS>BOND
     1    1    2 2
     2    2    3 1
     3    3    4 1
     4    1    5 1
     5    1    6 1
     6    2    7 1
     7    3    8 1
     8    3    9 1
@<TRIPOS>MOLECULE
bromomethane
    5     4     0     0     0
SMALL
NO_CHARGES

@<TRIPOS>ATOM
      1 C1          0.1359   -0.1000   -0.0729 C.3       1 <0>         0.0000
      2 Br1        -1.2946    0.9519    0.6956 Br        1 <0>         0.0000
      3 H1          0.8158    0.5792   -0.5895 H         1 <0>         0.0000
      4 H2          0.6483   -0.6190    0.7385 H         1 <0>         0.0000
      5 H3         -0.3055   -0.8121   -0.7717 H         1 <0>         0.0000
@<TRIPOS>BOND
     1    1    2 1
     2    1    3 1
     3    1    4 1
     4    1    5 1
@<TRIPOS>MOLECULE
dibromomethane
    5     4     0     0     0
SMALL
NO_CHARGES

@<TRIPOS>ATOM
      1 C1          0.1694   -0.0215    0.0448 C.3       1 <0>         0.0000
      2 Br1        -0.4991   -0.3017   -1.7476 Br        1 <0>         0.0000
      3 Br2        -1.2000    0.5174    1.2987 Br        1 <0>         0.0000
      4 H1          0.9257    0.7645    0.0074 H         1 <0>         0.0000
      5 H2          0.6041   -0.9587    0.3967 H         1 <0>         0.0000
@<TRIPOS>BOND
     1    1    2 1
     2    1    3 1
     3    1    4 1
     4    1    5 1
@<TRIPOS>MOLECULE
tribromomethane
    5     4     0     0     0
SMALL
NO_CHARGES

@<TRIPOS>ATOM
      1 C1         -0.1053    0.0140   -0.0443 C.3       1 <0>         0.0000
      2 Br1         0.1792   -1.9017    0.1250 Br        1 <0>         0.0000
      3 Br2        -0.1068    0.9104    1.6807 Br        1 <0>         0.0000
      4 Br3         1.1377    0.8320   -1.2955 Br        1 <0>         0.0000
      5 H1         -1.1047    0.1453   -0.4659 H         1 <0>         0.0000
@<TRIPOS>BOND
     1    1    2 1
     2    1    3 1
     3    1    4 1
     4    1    5 1
@<TRIPOS>MOLECULE
bromoethane
    8     7     0     0     0
SMALL
NO_CHARGES

@<TRIPOS>ATOM
      1 C1          0.0125   -0.7247    0.8210 C.3       1 <0>         0.0000
      2 C2          1.1399   -0.4427    1.7865 C.3       1 <0>         0.0000
      3 Br1         2.8461   -0.5455    0.8594 Br        1 <0>         0.0000
      4 H1          0.0014    0.0238    0.0227 H         1 <0>         0.0000
      5 H2          0.1215   -1.7113    0.3581 H         1 <0>         0.0000
      6 H3         -0.9598   -0.6967    1.3244 H         1 <0>         0.0000
      7 H4          1.1722   -1.1779    2.5944 H         1 <0>         0.0000
      8 H5          1.0673    0.5629    2.2082 H         1 <0>         0.0000
@<TRIPOS>BOND
     1    1    2 1
     2    2    3 1
     3    1    4 1
     4    1    5 1
     5    1    6 1
     6    2    7 1
     7    2    8 1
@<TRIPOS>MOLECULE
1,2-dibromoethane
    8     7     0     0     0
SMALL
NO_CHARGES

@<TRIPOS>ATOM
      1 C1         -0.2477    0.5488    0.4548 C.3       1 <0>         0.0000
      2 C2          0.2477   -0.5489   -0.4546 C.3       1 <0>         0.0000
      3 Br1        -1.3643   -0.2200    1.8507 Br        1 <0>         0.0000
      4 Br2         1.3190    0.2258   -1.8828 Br        1 <0>         0.0000
      5 H1          0.5696    1.0714    0.9604 H         1 <0>         0.0000
      6 H2         -0.8665    1.2801   -0.0735 H         1 <0>         0.0000
      7 H3         -0.5707   -1.0914   -0.9368 H         1 <0>         0.0000
      8 H4          0.8915   -1.2631    0.0668 H         1 <0>         0.0000
@<TRIPOS>BOND
     1    1    2 1
     2    1    3 1
     3    2    4 1
     4    1    5 1
     5    1    6 1
     6    2    7 1
     7    2    8 1
@<TRIPOS>MOLECULE
1-bromopropane
   11    10     0     0     0
SMALL
NO_CHARGES

@<TRIPOS>ATOM
      1 C1         -0.8961    0.1363   -0.9997 C.3       1 <0>         0.0000
      2 C2         -0.3515    0.1886    0.4185 C.3       1 <0>         0.0000
      3 C3          1.0884   -0.2893    0.4719 C.3       1 <0>         0.0000
      4 Br1         1.7612   -0.1528    2.2935 Br        1 <0>         0.0000
      5 H1         -0.2802    0.7493   -1.6653 H         1 <0>         0.0000
      6 H2         -0.8937   -0.8890   -1.3833 H         1 <0>         0.0000
      7 H3         -1.9219    0.5166   -1.0402 H         1 <0>         0.0000
      8 H4         -0.9818   -0.4310    1.0679 H         1 <0>         0.0000
      9 H5         -0.4249    1.2167    0.7933 H         1 <0>         0.0000
     10 H6          1.7467    0.3225   -0.1510 H         1 <0>         0.0000
     11 H7          1.1828   -1.3393    0.1817 H         1 <0>         0.0000
@<TRIPOS>BOND
     1    1    2 1
     2    2    3 1
     3    3    4 1
     4    1    5 1
     5    1    6 1
     6    1    7 1
     7    2    8 1
     8    2    9 1
     9    3   10 1
    10    3   11 1
@<TRIPOS>MOLECULE
2-bromopropane
   11    10     0     0     0
SMALL
NO_CHARGES

@<TRIPOS>ATOM
      1 C1         -0.2496   -0.5656   -1.1352 C.3       1 <0>         0.0000
      2 C2          0.2101    1.0085    0.7808 C.3       1 <0>         0.0000
      3 C3         -0.1530   -0.4084    0.3724 C.3       1 <0>         0.0000
      4 Br1         1.2148   -1.6327    1.0501 Br        1 <0>         0.0000
      5 H1          0.6818   -0.2612   -1.6252 H         1 <0>         0.0000
      6 H2         -0.4402   -1.6104   -1.4022 H         1 <0>         0.0000
      7 H3         -1.0590    0.0422   -1.5549 H         1 <0>         0.0000
      8 H4          1.1461    1.3283    0.3096 H         1 <0>         0.0000
      9 H5          0.3438    1.0748    1.8656 H         1 <0>         0.0000
     10 H6         -0.5677    1.7247    0.4929 H         1 <0>         0.0000
     11 H7         -1.0890   -0.7156    0.8493 H         1 <0>         0.0000
@<TRIPOS>BOND
     1    1    3 1
     2    2    3 1
     3    3    4 1
     4    1    5 1
     5    1    6 1
     6    1    7 1
     7    2    8 1
     8    2    9 1
     9    2   10 1
    10    3   11 1
@<TRIPOS>MOLECULE
1-bromobutane
   14    13     0     0     0
SMALL
NO_CHARGES

@<TRIPOS>ATOM
      1 C1         -0.7538    0.4800   -1.7634 C.3       1 <0>         0.0000
      2 C2          0.0333   -0.3376   -0.7515 C.3       1 <0>         0.0000
      3 C3         -0.0289    0.2854    0.6426 C.3       1 <0>         0.0000
      4 C4          0.7269   -0.5612    1.6525 C.3       1 <0>         0.0000
      5 Br1         0.6726    0.2930    3.4008 Br        1 <0>         0.0000
      6 H1         -1.8025    0.5711   -1.4633 H         1 <0>         0.0000
      7 H2         -0.3350    1.4877   -1.8442 H         1 <0>         0.0000
      8 H3         -0.7189    0.0169   -2.7547 H         1 <0>         0.0000
      9 H4          1.0764   -0.4095   -1.0810 H         1 <0>         0.0000
     10 H5         -0.3689   -1.3571   -0.7221 H         1 <0>         0.0000
     11 H6          0.3936    1.2976    0.6110 H         1 <0>         0.0000
     12 H7         -1.0767    0.3907    0.9508 H         1 <0>         0.0000
     13 H8          1.7829   -0.6672    1.3895 H         1 <0>         0.0000
     14 H9          0.2792   -1.5515    1.7744 H         1 <0>         0.0000
@<TRIPOS>BOND
     1    1    2 1
     2    2    3 1
     3    3    4 1
     4    4    5 1
     5    1    6 1
     6    1    7 1
     7    1    8 1
     8    2    9 1
     9    2   10 1
    10    3   11 1
    11    3   12 1
    12    4   13 1
    13    4   14 1
@<TRIPOS>MOLECULE
1-bromo-2-methylpropane
   14    13     0     0     0
SMALL
NO_CHARGES

@<TRIPOS>ATOM
      1 C1          0.5614   -0.7587    1.0935 C.3       1 <0>         0.0000
      2 C2         -0.5284    1.3564    0.3292 C.3       1 <0>         0.0000
      3 C3          0.1782   -0.3277   -1.3773 C.3       1 <0>         0.0000
      4 C4         -0.3604   -0.1374    0.0403 C.3       1 <0>         0.0000
      5 Br1         0.3632   -2.2180   -1.8166 Br        1 <0>         0.0000
      6 H1          1.5654   -0.3225    1.0494 H         1 <0>         0.0000
      7 H2          0.1656   -0.5898    2.1010 H         1 <0>         0.0000
      8 H3          0.6561   -1.8404    0.9583 H         1 <0>         0.0000
      9 H4          0.4280    1.8856    0.2574 H         1 <0>         0.0000
     10 H5         -0.9295    1.5161    1.3355 H         1 <0>         0.0000
     11 H6         -1.2238    1.8145   -0.3821 H         1 <0>         0.0000
     12 H7          1.1624    0.1293   -1.5168 H         1 <0>         0.0000
     13 H8         -0.5103    0.0727   -2.1276 H         1 <0>         0.0000
     14 H9         -1.3481   -0.6077    0.1277 H         1 <0>         0.0000
@<TRIPOS>BOND
     1    1    4 1
     2    2    4 1
     3    3    4 1
     4    3    5 1
     5    1    6 1
     6    1    7 1
     7    1    8 1
     8    2    9 1
     9    2   10 1
    10    2   11 1
    11    3   12 1
    12    3   13 1
    13    4   14 1
@<TRIPOS>MOLECULE
2-bromo-2-methylpropane
   14    13     0     0     0
SMALL
NO_CHARGES

@<TRIPOS>ATOM
      1 C1          0.2695   -1.1203    0.8963 C.3       1 <0>         0.0000
      2 C2         -1.3794    0.2973   -0.3751 C.3       1 <0>         0.0000
      3 C3          1.0913    0.5552   -0.7955 C.3       1 <0>         0.0000
      4 C4          0.0165    0.2357    0.2412 C.3       1 <0>         0.0000
      5 Br1         0.1126    1.6122    1.6510 Br        1 <0>         0.0000
      6 H1          1.2701   -1.1722    1.3413 H         1 <0>         0.0000
      7 H2         -0.4550   -1.3241    1.6935 H         1 <0>         0.0000
      8 H3          0.1910   -1.9299    0.1621 H         1 <0>         0.0000
      9 H4         -1.5688    1.2681   -0.8476 H         1 <0>         0.0000
     10 H5         -1.5154   -0.4731   -1.1429 H         1 <0>         0.0000
     11 H6         -2.1508    0.1441    0.3880 H         1 <0>         0.0000
     12 H7          0.9163    1.5276   -1.2704 H         1 <0>         0.0000
     13 H8          1.1202   -0.1982   -1.5914 H         1 <0>         0.0000
     14 H9          2.0838    0.5861   -0.3324 H         1 <0>         0.0000
@<TRIPOS>BOND
     1    1    4 1
     2    2    4 1
     3    3    4 1
     4    4    5 1
     5    1    6 1
     6    1    7 1
     7    1    8 1
     8    2    9 1
     9    2   10 1
    10    2   11 1
    11    3   12 1
    12    3   13 1
    13    3   14 1
@<TRIPOS>MOLECULE
1-bromopentane
   17    16     0     0     0
SMALL
NO_CHARGES

@<TRIPOS>ATOM
      1 C1         -1.0596   -1.3964    1.7204 C.3       1 <0>         0.0000
      2 C2         -0.4815   -0.9323    0.3922 C.3       1 <0>         0.0000
      3 C3          0.4410    0.2733    0.5771 C.3       1 <0>         0.0000
      4 C4          1.1027    0.7352   -0.7240 C.3       1 <0>         0.0000
      5 C5          1.9920    1.9537   -0.5389 C.3       1 <0>         0.0000
      6 Br1         2.8294    2.4187   -2.2361 Br        1 <0>         0.0000
      7 H1         -1.6177   -0.5837    2.1955 H         1 <0>         0.0000
      8 H2         -0.2653   -1.7091    2.4056 H         1 <0>         0.0000
      9 H3         -1.7430   -2.2396    1.5782 H         1 <0>         0.0000
     10 H4          0.0727   -1.7590   -0.0670 H         1 <0>         0.0000
     11 H5         -1.3083   -0.6799   -0.2803 H         1 <0>         0.0000
     12 H6         -0.1204    1.1055    1.0194 H         1 <0>         0.0000
     13 H7          1.2329    0.0126    1.2904 H         1 <0>         0.0000
     14 H8          1.6995   -0.0979   -1.1170 H         1 <0>         0.0000
     15 H9          0.3302    0.9419   -1.4754 H         1 <0>         0.0000
     16 H10         2.8050    1.7650    0.1674 H         1 <0>         0.0000
     17 H11         1.4314    2.8383   -0.2273 H         1 <0>         0.0000
@<TRIPOS>BOND
     1    1    2 1
     2    2    3 1
     3    3    4 1
     4    4    5 1
     5    5    6 1
     6    1    7 1
     7    1    8 1
     8    1    9 1
     9    2   10 1
    10    2   11 1
    11    3   12 1
    12    3   13 1
    13    4   14 1
    14    4   15 1
    15    5   16 1
    16    5   17 1
@<TRIPOS>MOLECULE
1-bromohexane
   20    19     0     0     0
SMALL
NO_CHARGES

@<TRIPOS>ATOM
      1 C1          0.1426    1.4598   -2.8389 C.3       1 <0>         0.0000
      2 C2         -0.5361    1.0930   -1.5289 C.3       1 <0>         0.0000
      3 C3          0.3489    0.1853   -0.6748 C.3       1 <0>         0.0000
      4 C4         -0.3512   -0.2087    0.6279 C.3       1 <0>         0.0000
      5 C5          0.5489   -1.0957    1.4947 C.3       1 <0>         0.0000
      6 C6         -0.1404   -1.5916    2.7564 C.3       1 <0>         0.0000
      7 Br1         1.0420   -2.7223    3.8106 Br        1 <0>         0.0000
      8 H1          0.3918    0.5637   -3.4161 H         1 <0>         0.0000
      9 H2          1.0700    2.0077   -2.6448 H         1 <0>         0.0000
     10 H3         -0.5051    2.0947   -3.4518 H         1 <0>         0.0000
     11 H4         -0.7716    2.0104   -0.9767 H         1 <0>         0.0000
     12 H5         -1.4867    0.5909   -1.7444 H         1 <0>         0.0000
     13 H6          1.2898    0.7002   -0.4450 H         1 <0>         0.0000
     14 H7          0.6048   -0.7176   -1.2424 H         1 <0>         0.0000
     15 H8         -1.2795   -0.7446    0.3958 H         1 <0>         0.0000
     16 H9         -0.6300    0.6989    1.1748 H         1 <0>         0.0000
     17 H10         1.4709   -0.5575    1.7463 H         1 <0>         0.0000
     18 H11         0.8453   -1.9711    0.9036 H         1 <0>         0.0000
     19 H12        -0.4689   -0.7737    3.4030 H         1 <0>         0.0000
     20 H13        -1.0009   -2.2188    2.5070 H         1 <0>         0.0000
@<TRIPOS>BOND
     1    1    2 1
     2    2    3 1
     3    3    4 1
     4    4    5 1
     5    5    6 1
     6    6    7 1
     7    1    8 1
     8    1    9 1
     9    1   10 1
    10    2   11 1
    11    2   12 1
    12    3   13 1
    13    3   14 1
    14    4   15 1
    15    4   16 1
    16    5   17 1
    17    5   18 1
    18    6   19 1
    19    6   20 1
@<TRIPOS>MOLECULE
1-bromoheptane
   23    22     0     0     0
SMALL
NO_CHARGES

@<TRIPOS>ATOM
      1 C1         -3.6399    0.5025    0.5265 C.3       1 <0>         0.0000
      2 C2         -2.1621    0.6633    0.8451 C.3       1 <0>         0.0000
      3 C3         -1.2838    0.0886   -0.2661 C.3       1 <0>         0.0000
      4 C4          0.2024    0.2222    0.0741 C.3       1 <0>         0.0000
      5 C5          1.0803   -0.3188   -1.0567 C.3       1 <0>         0.0000
      6 C6          2.5792   -0.2206   -0.7603 C.3       1 <0>         0.0000
      7 C7          3.4440   -0.7904   -1.8726 C.3       1 <0>         0.0000
      8 Br1         5.3224   -0.6818   -1.3635 Br        1 <0>         0.0000
      9 H1         -3.8803    1.0005   -0.4180 H         1 <0>         0.0000
     10 H2         -3.9077   -0.5546    0.4307 H         1 <0>         0.0000
     11 H3         -4.2611    0.9448    1.3117 H         1 <0>         0.0000
     12 H4         -1.9416    0.1586    1.7930 H         1 <0>         0.0000
     13 H5         -1.9379    1.7274    0.9841 H         1 <0>         0.0000
     14 H6         -1.4942    0.6111   -1.2072 H         1 <0>         0.0000
     15 H7         -1.5315   -0.9687   -0.4208 H         1 <0>         0.0000
     16 H8          0.4076   -0.3225    1.0024 H         1 <0>         0.0000
     17 H9          0.4439    1.2765    0.2547 H         1 <0>         0.0000
     18 H10         0.8748    0.2489   -1.9728 H         1 <0>         0.0000
     19 H11         0.8146   -1.3622   -1.2657 H         1 <0>         0.0000
     20 H12         2.8278    0.8376   -0.6077 H         1 <0>         0.0000
     21 H13         2.7998   -0.7283    0.1872 H         1 <0>         0.0000
     22 H14         3.2433   -1.8481   -2.0591 H         1 <0>         0.0000
     23 H15         3.3409   -0.2256   -2.8029 H         1 <0>         0.0000
@<TRIPOS>BOND
     1    1    2 1
     2    2    3 1
     3    3    4 1
     4    4    5 1
     5    5    6 1
     6    6    7 1
     7    7    8 1
     8    1    9 1
     9    1   10 1
    10    1   11 1
    11    2   12 1
    12    2   13 1
    13    3   14 1
    14    3   15 1
    15    4   16 1
    16    4   17 1
    17    5   18 1
    18    5   19 1
    19    6   20 1
    20    6   21 1
    21    7   22 1
    22    7   23 1
@<TRIPOS>MOLECULE
1-bromooctane
   26    25     0     0     0
SMALL
NO_CHARGES

@<TRIPOS>ATOM
      1 C1          4.4037    1.2974   -1.1774 C.3       1 <0>         0.0000
      2 C2          2.9741    1.1492   -1.6762 C.3       1 <0>         0.0000
      3 C3          2.0789    0.5030   -0.6181 C.3       1 <0>         0.0000
      4 C4          0.6239    0.3425   -1.0676 C.3       1 <0>         0.0000
      5 C5         -0.2559   -0.3698   -0.0379 C.3       1 <0>         0.0000
      6 C6         -1.6910   -0.5233   -0.5474 C.3       1 <0>         0.0000
      7 C7         -2.5653   -1.2640    0.4655 C.3       1 <0>         0.0000
      8 C8         -3.9773   -1.4477   -0.0641 C.3       1 <0>         0.0000
      9 Br1        -5.0718   -2.3427    1.2741 Br        1 <0>         0.0000
     10 H1          4.4408    1.9017   -0.2654 H         1 <0>         0.0000
     11 H2          4.8296    0.3149   -0.9510 H         1 <0>         0.0000
     12 H3          5.0351    1.7757   -1.9331 H         1 <0>         0.0000
     13 H4          2.9730    0.5407   -2.5877 H         1 <0>         0.0000
     14 H5          2.5932    2.1404   -1.9443 H         1 <0>         0.0000
     15 H6          2.4727   -0.4919   -0.3756 H         1 <0>         0.0000
     16 H7          2.1155    1.0903    0.3076 H         1 <0>         0.0000
     17 H8          0.2000    1.3273   -1.2991 H         1 <0>         0.0000
     18 H9          0.6169   -0.2316   -2.0026 H         1 <0>         0.0000
     19 H10        -0.2686    0.1952    0.9006 H         1 <0>         0.0000
     20 H11         0.1629   -1.3591    0.1824 H         1 <0>         0.0000
     21 H12        -2.1177    0.4676   -0.7455 H         1 <0>         0.0000
     22 H13        -1.6873   -1.0703   -1.4981 H         1 <0>         0.0000
     23 H14        -2.5888   -0.7036    1.4085 H         1 <0>         0.0000
     24 H15        -2.1191   -2.2409    0.6900 H         1 <0>         0.0000
     25 H16        -4.4632   -0.4914   -0.2762 H         1 <0>         0.0000
     26 H17        -4.0010   -2.0763   -0.9583 H         1 <0>         0.0000
@<TRIPOS>BOND
     1    1    2 1
     2    2    3 1
     3    3    4 1
     4    4    5 1
     5    5    6 1
     6    6    7 1
     7    7    8 1
     8    8    9 1
     9    1   10 1
    10    1   11 1
    11    1   12 1
    12    2   13 1
    13    2   14 1
    14    3   15 1
    15    3   16 1
    16    4   17 1
    17    4   18 1
    18    5   19 1
    19    5   20 1
    20    6   21 1
    21    6   22 1
    22    7   23 1
    23    7   24 1
    24    8   25 1
    25    8   26 1
@<TRIPOS>MOLECULE
iodomethane
    5     4     0     0     0
SMALL
NO_CHARGES

@<TRIPOS>ATOM
      1 C1          0.1099   -0.0900   -0.1201 C.3       1 <0>         0.0000
      2 I1         -1.1366    0.9313    1.2449 I         1 <0>         0.0000
      3 H1          0.7691    0.6051   -0.6488 H         1 <0>         0.0000
      4 H2          0.7395   -0.8226    0.3935 H         1 <0>         0.0000
      5 H3         -0.4820   -0.6237   -0.8694 H         1 <0>         0.0000
@<TRIPOS>BOND
     1    1    2 1
     2    1    3 1
     3    1    4 1
     4    1    5 1
@<TRIPOS>MOLECULE
iodoethane
    8     7     0     0     0
SMALL
NO_CHARGES

@<TRIPOS>ATOM
      1 C1          0.1447   -0.6955    0.8338 C.3       1 <0>         0.0000
      2 C2          1.4101   -0.3747    1.6104 C.3       1 <0>         0.0000
      3 I1          3.1275   -0.5146    0.3556 I         1 <0>         0.0000
      4 H1          0.0368   -0.0067   -0.0104 H         1 <0>         0.0000
      5 H2          0.1682   -1.7152    0.4344 H         1 <0>         0.0000
      6 H3         -0.7467   -0.5978    1.4629 H         1 <0>         0.0000
      7 H4          1.5088   -1.0687    2.4520 H         1 <0>         0.0000
      8 H5          1.3374    0.6351    2.0281 H         1 <0>         0.0000
@<TRIPOS>BOND
     1    1    2 1
     2    2    3 1
     3    1    4 1
     4    1    5 1
     5    1    6 1
     6    2    7 1
     7    2    8 1
@<TRIPOS>MOLECULE
1-iodopropane
   11    10     0     0     0
SMALL
NO_CHARGES

@<TRIPOS>ATOM
      1 C1         -0.5092   -0.5493    0.7984 C.3       1 <0>         0.0000
      2 C2          0.3041   -0.5215    2.0835 C.3       1 <0>         0.0000
      3 C3          1.6753   -1.1640    1.8863 C.3       1 <0>         0.0000
      4 I1          2.7878   -1.1442    3.7119 I         1 <0>         0.0000
      5 H1          0.0278   -0.0296   -0.0013 H         1 <0>         0.0000
      6 H2         -0.6918   -1.5781    0.4720 H         1 <0>         0.0000
      7 H3         -1.4762   -0.0549    0.9352 H         1 <0>         0.0000
      8 H4         -0.2530   -1.0471    2.8685 H         1 <0>         0.0000
      9 H5          0.4154    0.5191    2.4115 H         1 <0>         0.0000
     10 H6          2.2354   -0.6248    1.1142 H         1 <0>         0.0000
     11 H7          1.5599   -2.1982    1.5429 H         1 <0>         0.0000
@<TRIPOS>BOND
     1    1    2 1
     2    2    3 1
     3    3    4 1
     4    1    5 1
     5    1    6 1
     6    1    7 1
     7    2    8 1
     8    2    9 1
     9    3   10 1
    10    3   11 1
@<TRIPOS>MOLECULE
1-iodobutane
   14    13     0     0     0
SMALL
NO_CHARGES

@<TRIPOS>ATOM
      1 C1         -0.0304    0.4285    1.0065 C.3       1 <0>         0.0000
      2 C2          0.7904   -0.4199    1.9648 C.3       1 <0>         0.0000
      3 C3          0.7704    0.1560    3.3812 C.3       1 <0>         0.0000
      4 C4          1.5645   -0.7246    4.3451 C.3       1 <0>         0.0000
      5 I1          1.4997    0.0759    6.3267 I         1 <0>         0.0000
      6 H1         -1.0694    0.5057    1.3423 H         1 <0>         0.0000
      7 H2          0.3830    1.4401    0.9470 H         1 <0>         0.0000
      8 H3         -0.0251   -0.0005   -0.0005 H         1 <0>         0.0000
      9 H4          1.8227   -0.4767    1.6004 H         1 <0>         0.0000
     10 H5          0.3919   -1.4411    1.9722 H         1 <0>         0.0000
     11 H6          1.1894    1.1699    3.3674 H         1 <0>         0.0000
     12 H7         -0.2684    0.2448    3.7231 H         1 <0>         0.0000
     13 H8          2.6075   -0.7955    4.0167 H         1 <0>         0.0000
     14 H9          1.1545   -1.7407    4.3506 H         1 <0>         0.0000
@<TRIPOS>BOND
     1    1    2 1
     2    2    3 1
     3    3    4 1
     4    4    5 1
     5    1    6 1
     6    1    7 1
     7    1    8 1
     8    2    9 1
     9    2   10 1
    10    3   11 1
    11    3   12 1
    12    4   13 1
    13    4   14 1
@<TRIPOS>MOLECULE
1-iodopentane
   17    16     0     0     0
SMALL
NO_CHARGES

@<TRIPOS>ATOM
      1 C1          2.1339   -1.3875   -1.4660 C.3       1 <0>         0.0000
      2 C2          1.2425   -0.2585   -0.9722 C.3       1 <0>         0.0000
      3 C3          0.4443   -0.6145    0.2839 C.3       1 <0>         0.0000
      4 C4         -0.4711    0.5157    0.7620 C.3       1 <0>         0.0000
      5 C5         -1.2695    0.0906    1.9948 C.3       1 <0>         0.0000
      6 I1         -2.5668    1.6658    2.6337 I         1 <0>         0.0000
      7 H1          2.8304   -1.7177   -0.6900 H         1 <0>         0.0000
      8 H2          1.5234   -2.2504   -1.7511 H         1 <0>         0.0000
      9 H3          2.7119   -1.0774   -2.3422 H         1 <0>         0.0000
     10 H4          0.5600    0.0451   -1.7747 H         1 <0>         0.0000
     11 H5          1.8733    0.6100   -0.7477 H         1 <0>         0.0000
     12 H6          1.1553   -0.8619    1.0820 H         1 <0>         0.0000
     13 H7         -0.1491   -1.5181    0.0983 H         1 <0>         0.0000
     14 H8          0.1340    1.4008    0.9945 H         1 <0>         0.0000
     15 H9         -1.1613    0.7997   -0.0409 H         1 <0>         0.0000
     16 H10        -0.5886   -0.1713    2.8122 H         1 <0>         0.0000
     17 H11        -1.8653   -0.8005    1.7677 H         1 <0>         0.0000
@<TRIPOS>BOND
     1    1    2 1
     2    2    3 1
     3    3    4 1
     4    4    5 1
     5    5    6 1
     6    1    7 1
     7    1    8 1
     8    1    9 1
     9    2   10 1
    10    2   11 1
    11    3   12 1
    12    3   13 1
    13    4   14 1
    14    4   15 1
    15    5   16 1
    16    5   17 1
@<TRIPOS>MOLECULE
1-iodohexane
   20    19     0     0     0
SMALL
NO_CHARGES

@<TRIPOS>ATOM
      1 C1          0.1662    1.5991   -2.7665 C.3       1 <0>         0.0000
      2 C2         -0.5265    1.1632   -1.4853 C.3       1 <0>         0.0000
      3 C3          0.3544    0.2211   -0.6651 C.3       1 <0>         0.0000
      4 C4         -0.3595   -0.2414    0.6074 C.3       1 <0>         0.0000
      5 C5          0.5365   -1.1646    1.4407 C.3       1 <0>         0.0000
      6 C6         -0.1682   -1.7427    2.6690 C.3       1 <0>         0.0000
      7 I1          1.0639   -3.1190    3.7452 I         1 <0>         0.0000
      8 H1          0.4299    0.7344   -3.3838 H         1 <0>         0.0000
      9 H2          1.0867    2.1433   -2.5332 H         1 <0>         0.0000
     10 H3         -0.4785    2.2589   -3.3561 H         1 <0>         0.0000
     11 H4         -0.7764    2.0505   -0.8919 H         1 <0>         0.0000
     12 H5         -1.4700    0.6656   -1.7380 H         1 <0>         0.0000
     13 H6          1.2881    0.7307   -0.3977 H         1 <0>         0.0000
     14 H7          0.6245   -0.6510   -1.2730 H         1 <0>         0.0000
     15 H8         -1.2806   -0.7719    0.3368 H         1 <0>         0.0000
     16 H9         -0.6527    0.6365    1.1933 H         1 <0>         0.0000
     17 H10         1.4526   -0.6368    1.7323 H         1 <0>         0.0000
     18 H11         0.8479   -2.0040    0.8058 H         1 <0>         0.0000
     19 H12        -0.5037   -0.9379    3.3322 H         1 <0>         0.0000
     20 H13        -1.0660   -2.2782    2.3392 H         1 <0>         0.0000
@<TRIPOS>BOND
     1    1    2 1
     2    2    3 1
     3    3    4 1
     4    4    5 1
     5    5    6 1
     6    6    7 1
     7    1    8 1
     8    1    9 1
     9    1   10 1
    10    2   11 1
    11    2   12 1
    12    3   13 1
    13    3   14 1
    14    4   15 1
    15    4   16 1
    16    5   17 1
    17    5   18 1
    18    6   19 1
    19    6   20 1
@<TRIPOS>MOLECULE
1-iodoheptane
   23    22     0     0     0
SMALL
NO_CHARGES

@<TRIPOS>ATOM
      1 C1         -2.0658   -3.5117    0.1290 C.3       1 <0>         0.0000
      2 C2         -0.8757   -2.5954    0.3681 C.3       1 <0>         0.0000
      3 C3         -1.0579   -1.1921   -0.2142 C.3       1 <0>         0.0000
      4 C4          0.1697   -0.2964   -0.0340 C.3       1 <0>         0.0000
      5 C5         -0.0768    1.1021   -0.6048 C.3       1 <0>         0.0000
      6 C6          1.1604    1.9905   -0.4558 C.3       1 <0>         0.0000
      7 C7          0.8963    3.3973   -0.9907 C.3       1 <0>         0.0000
      8 I1          2.6436    4.6158   -0.8048 I         1 <0>         0.0000
      9 H1         -2.9806   -3.1046    0.5693 H         1 <0>         0.0000
     10 H2         -2.2347   -3.6662   -0.9413 H         1 <0>         0.0000
     11 H3         -1.8847   -4.4891    0.5878 H         1 <0>         0.0000
     12 H4          0.0104   -3.0493   -0.0918 H         1 <0>         0.0000
     13 H5         -0.6758   -2.5303    1.4440 H         1 <0>         0.0000
     14 H6         -1.9341   -0.7158    0.2424 H         1 <0>         0.0000
     15 H7         -1.2749   -1.2916   -1.2848 H         1 <0>         0.0000
     16 H8          1.0330   -0.7505   -0.5352 H         1 <0>         0.0000
     17 H9          0.4187   -0.2101    1.0297 H         1 <0>         0.0000
     18 H10        -0.9259    1.5649   -0.0871 H         1 <0>         0.0000
     19 H11        -0.3470    1.0243   -1.6650 H         1 <0>         0.0000
     20 H12         2.0015    1.5362   -0.9944 H         1 <0>         0.0000
     21 H13         1.4476    2.0394    0.6021 H         1 <0>         0.0000
     22 H14         0.0711    3.8607   -0.4386 H         1 <0>         0.0000
     23 H15         0.5985    3.3493   -2.0441 H         1 <0>         0.0000
@<TRIPOS>BOND
     1    1    2 1
     2    2    3 1
     3    3    4 1
     4    4    5 1
     5    5    6 1
     6    6    7 1
     7    7    8 1
     8    1    9 1
     9    1   10 1
    10    1   11 1
    11    2   12 1
    12    2   13 1
    13    3   14 1
    14    3   15 1
    15    4   16 1
    16    4   17 1
    17    5   18 1
    18    5   19 1
    19    6   20 1
    20    6   21 1
    21    7   22 1
    22    7   23 1
@<TRIPOS>MOLECULE
diethylether
   15    14     0     0     0
SMALL
NO_CHARGES

@<TRIPOS>ATOM
      1 C1          0.9167    1.4498    0.5861 C.3       1 <0>         0.0000
      2 C2          1.9430    1.3174   -4.0752 C.3       1 <0>         0.0000
      3 C3          1.9101    0.9126   -0.4220 C.3       1 <0>         0.0000
      4 C4          2.4157    0.8471   -2.7161 C.3       1 <0>         0.0000
      5 O1          1.5170    1.3236   -1.7228 O.3       1 <0>         0.0000
      6 H1          0.8863    2.5427    0.5597 H         1 <0>         0.0000
      7 H2         -0.0873    1.0632    0.3824 H         1 <0>         0.0000
      8 H3          1.1823    1.1282    1.5986 H         1 <0>         0.0000
      9 H4          0.9435    0.9324   -4.2954 H         1 <0>         0.0000
     10 H5          1.9180    2.4112   -4.1179 H         1 <0>         0.0000
     11 H6          2.6307    0.9839   -4.8595 H         1 <0>         0.0000
     12 H7          1.9355   -0.1807   -0.3905 H         1 <0>         0.0000
     13 H8          2.9125    1.3005   -0.2176 H         1 <0>         0.0000
     14 H9          3.4159    1.2356   -2.5021 H         1 <0>         0.0000
     15 H10         2.4394   -0.2460   -2.6749 H         1 <0>         0.0000
@<TRIPOS>BOND
     1    1    3 1
     2    2    4 1
     3    3    5 1
     4    4    5 1
     5    1    6 1
     6    1    7 1
     7    1    8 1
     8    2    9 1
     9    2   10 1
    10    2   11 1
    11    3   12 1
    12    3   13 1
    13    4   14 1
    14    4   15 1
@<TRIPOS>MOLECULE
di-n-propylether
   21    20     0     0     0
SMALL
NO_CHARGES

@<TRIPOS>ATOM
      1 C1         -1.2014   -0.8990    2.8898 C.3       1 <0>         0.0000
      2 C2          6.0775   -2.0271    3.3154 C.3       1 <0>         0.0000
      3 C3          0.1100   -0.6530    3.6139 C.3       1 <0>         0.0000
      4 C4          4.8248   -1.4002    3.9005 C.3       1 <0>         0.0000
      5 C5          1.2749   -1.3494    2.9273 C.3       1 <0>         0.0000
      6 C6          3.5918   -1.7167    3.0680 C.3       1 <0>         0.0000
      7 O1          2.4629   -1.0899    3.6622 O.3       1 <0>         0.0000
      8 H1         -1.1454   -0.5586    1.8509 H         1 <0>         0.0000
      9 H2         -1.4375   -1.9677    2.8845 H         1 <0>         0.0000
     10 H3         -2.0254   -0.3716    3.3806 H         1 <0>         0.0000
     11 H4          5.9713   -3.1137    3.2353 H         1 <0>         0.0000
     12 H5          6.2685   -1.6299    2.3136 H         1 <0>         0.0000
     13 H6          6.9514   -1.8119    3.9383 H         1 <0>         0.0000
     14 H7          0.0333   -1.0004    4.6512 H         1 <0>         0.0000
     15 H8          0.3074    0.4242    3.6712 H         1 <0>         0.0000
     16 H9          4.9512   -0.3133    3.9724 H         1 <0>         0.0000
     17 H10         4.6760   -1.7543    4.9277 H         1 <0>         0.0000
     18 H11         1.1169   -2.4321    2.8914 H         1 <0>         0.0000
     19 H12         1.4076   -0.9751    1.9072 H         1 <0>         0.0000
     20 H13         3.7024   -1.3392    2.0465 H         1 <0>         0.0000
     21 H14         3.4117   -2.7959    3.0311 H         1 <0>         0.0000
@<TRIPOS>BOND
     1    1    3 1
     2    2    4 1
     3    3    5 1
     4    4    6 1
     5    5    7 1
     6    6    7 1
     7    1    8 1
     8    1    9 1
     9    1   10 1
    10    2   11 1
    11    2   12 1
    12    2   13 1
    13    3   14 1
    14    3   15 1
    15    4   16 1
    16    4   17 1
    17    5   18 1
    18    5   19 1
    19    6   20 1
    20    6   21 1
@<TRIPOS>MOLECULE
diisopropylether
   21    20     0     0     0
SMALL
NO_CHARGES

@<TRIPOS>ATOM
      1 C1          0.2247   -0.0420    1.7545 C.3       1 <0>         0.0000
      2 C2          2.1168    0.4790    0.1733 C.3       1 <0>         0.0000
      3 C3          1.5259    4.4509    0.6852 C.3       1 <0>         0.0000
      4 C4          1.5304    3.5647    3.0445 C.3       1 <0>         0.0000
      5 C5          1.3532    0.9191    1.4130 C.3       1 <0>         0.0000
      6 C6          1.7303    3.2332    1.5735 C.3       1 <0>         0.0000
      7 O1          0.8123    2.2184    1.1940 O.3       1 <0>         0.0000
      8 H1         -0.4829   -0.1344    0.9250 H         1 <0>         0.0000
      9 H2          0.6262   -1.0348    1.9844 H         1 <0>         0.0000
     10 H3         -0.3204    0.2902    2.6449 H         1 <0>         0.0000
     11 H4          1.4543    0.3989   -0.6939 H         1 <0>         0.0000
     12 H5          2.5905   -0.4939    0.3428 H         1 <0>         0.0000
     13 H6          2.9216    1.1833   -0.0646 H         1 <0>         0.0000
     14 H7          0.5242    4.8724    0.8134 H         1 <0>         0.0000
     15 H8          2.2642    5.2242    0.9229 H         1 <0>         0.0000
     16 H9          1.6665    4.1966   -0.3713 H         1 <0>         0.0000
     17 H10         0.5289    3.9652    3.2290 H         1 <0>         0.0000
     18 H11         2.2689    4.3042    3.3722 H         1 <0>         0.0000
     19 H12         1.6740    2.6778    3.6714 H         1 <0>         0.0000
     20 H13         2.0424    0.9895    2.2609 H         1 <0>         0.0000
     21 H14         2.7393    2.8358    1.4223 H         1 <0>         0.0000
@<TRIPOS>BOND
     1    1    5 1
     2    2    5 1
     3    3    6 1
     4    4    6 1
     5    5    7 1
     6    6    7 1
     7    1    8 1
     8    1    9 1
     9    1   10 1
    10    2   11 1
    11    2   12 1
    12    2   13 1
    13    3   14 1
    14    3   15 1
    15    3   16 1
    16    4   17 1
    17    4   18 1
    18    4   19 1
    19    5   20 1
    20    6   21 1
@<TRIPOS>MOLECULE
di-n-butylether
   27    26     0     0     0
SMALL
NO_CHARGES

@<TRIPOS>ATOM
      1 C1          0.7086   -2.2896   -0.7882 C.3       1 <0>         0.0000
      2 C2         -9.0252   -3.4077   -0.2397 C.3       1 <0>         0.0000
      3 C3         -0.4175   -2.6603    0.1635 C.3       1 <0>         0.0000
      4 C4         -7.7408   -3.5570    0.5598 C.3       1 <0>         0.0000
      5 C5         -1.7782   -2.5830   -0.5230 C.3       1 <0>         0.0000
      6 C6         -6.5174   -3.1834   -0.2724 C.3       1 <0>         0.0000
      7 C7         -2.9047   -2.9950    0.4140 C.3       1 <0>         0.0000
      8 C8         -5.2329   -3.2900    0.5372 C.3       1 <0>         0.0000
      9 O1         -4.1377   -2.9159   -0.2877 O.3       1 <0>         0.0000
     10 H1          0.5698   -1.2791   -1.1856 H         1 <0>         0.0000
     11 H2          1.6787   -2.3301   -0.2827 H         1 <0>         0.0000
     12 H3          0.7361   -2.9858   -1.6323 H         1 <0>         0.0000
     13 H4         -9.0036   -4.0338   -1.1375 H         1 <0>         0.0000
     14 H5         -9.8955   -3.6951    0.3589 H         1 <0>         0.0000
     15 H6         -9.1574   -2.3678   -0.5539 H         1 <0>         0.0000
     16 H7         -0.2487   -3.6751    0.5423 H         1 <0>         0.0000
     17 H8         -0.3963   -1.9842    1.0261 H         1 <0>         0.0000
     18 H9         -7.7948   -2.9189    1.4495 H         1 <0>         0.0000
     19 H10        -7.6525   -4.5926    0.9081 H         1 <0>         0.0000
     20 H11        -1.9628   -1.5647   -0.8872 H         1 <0>         0.0000
     21 H12        -1.7920   -3.2259   -1.4121 H         1 <0>         0.0000
     22 H13        -6.4455   -3.8317   -1.1546 H         1 <0>         0.0000
     23 H14        -6.6190   -2.1617   -0.6594 H         1 <0>         0.0000
     24 H15        -2.7673   -4.0239    0.7614 H         1 <0>         0.0000
     25 H16        -2.9546   -2.3293    1.2816 H         1 <0>         0.0000
     26 H17        -5.2606   -2.6214    1.4035 H         1 <0>         0.0000
     27 H18        -5.0732   -4.3161    0.8835 H         1 <0>         0.0000
@<TRIPOS>BOND
     1    1    3 1
     2    2    4 1
     3    3    5 1
     4    4    6 1
     5    5    7 1
     6    6    8 1
     7    7    9 1
     8    8    9 1
     9    1   10 1
    10    1   11 1
    11    1   12 1
    12    2   13 1
    13    2   14 1
    14    2   15 1
    15    3   16 1
    16    3   17 1
    17    4   18 1
    18    4   19 1
    19    5   20 1
    20    5   21 1
    21    6   22 1
    22    6   23 1
    23    7   24 1
    24    7   25 1
    25    8   26 1
    26    8   27 1
@<TRIPOS>MOLECULE
tetrahydrofuran
   13    13     0     0     0
SMALL
NO_CHARGES

@<TRIPOS>ATOM
      1 C1         -0.5413    0.3724   -1.0757 C.3       1 <0>         0.0000
      2 C2         -0.5364   -1.0227   -0.5053 C.3       1 <0>         0.0000
      3 C3          0.6038    1.0191   -0.3271 C.3       1 <0>         0.0000
      4 C4         -0.1835   -0.7655    0.9437 C.3       1 <0>         0.0000
      5 O1          0.6574    0.3967    0.9644 O.3       1 <0>         0.0000
      6 H1         -0.4155    0.4056   -2.1609 H         1 <0>         0.0000
      7 H2         -1.4836    0.8729   -0.8229 H         1 <0>         0.0000
      8 H3         -1.4848   -1.5521   -0.6270 H         1 <0>         0.0000
      9 H4          0.2527   -1.6156   -0.9829 H         1 <0>         0.0000
     10 H5          1.5599    0.8326   -0.8277 H         1 <0>         0.0000
     11 H6          0.4748    2.0988   -0.2114 H         1 <0>         0.0000
     12 H7         -1.0772   -0.5410    1.5357 H         1 <0>         0.0000
     13 H8          0.3389   -1.6079    1.4054 H         1 <0>         0.0000
@<TRIPOS>BOND
     1    1    2 1
     2    1    3 1
     3    2    4 1
     4    3    5 1
     5    4    5 1
     6    1    6 1
     7    1    7 1
     8    2    8 1
     9    2    9 1
    10    3   10 1
    11    3   11 1
    12    4   12 1
    13    4   13 1
@<TRIPOS>MOLECULE
2-methyltetrahydrofuran
   16    16     0     0     0
SMALL
NO_CHARGES

@<TRIPOS>ATOM
      1 C1          0.4471   -0.5936   -0.8062 C.3       1 <0>         0.0000
      2 C2          1.7598   -1.1755   -0.3451 C.3       1 <0>         0.0000
      3 C3          0.8868    0.3152   -1.9345 C.3       1 <0>         0.0000
      4 C4          2.6858    0.0207   -0.4824 C.3       1 <0>         0.0000
      5 C5          4.1395   -0.3595   -0.6862 C.3       1 <0>         0.0000
      6 O1          2.2123    0.7657   -1.6171 O.3       1 <0>         0.0000
      7 H1         -0.2812   -1.3449   -1.1222 H         1 <0>         0.0000
      8 H2         -0.0004   -0.0001   -0.0002 H         1 <0>         0.0000
      9 H3          1.7255   -1.5722    0.6733 H         1 <0>         0.0000
     10 H4          2.0600   -1.9860   -1.0204 H         1 <0>         0.0000
     11 H5          0.9390   -0.2288   -2.8836 H         1 <0>         0.0000
     12 H6          0.2251    1.1766   -2.0619 H         1 <0>         0.0000
     13 H7          2.5943    0.6736    0.3940 H         1 <0>         0.0000
     14 H8          4.2435   -1.0105   -1.5574 H         1 <0>         0.0000
     15 H9          4.5206   -0.8882    0.1906 H         1 <0>         0.0000
     16 H10         4.7474    0.5343   -0.8452 H         1 <0>         0.0000
@<TRIPOS>BOND
     1    1    2 1
     2    1    3 1
     3    2    4 1
     4    3    6 1
     5    4    5 1
     6    4    6 1
     7    1    7 1
     8    1    8 1
     9    2    9 1
    10    2   10 1
    11    3   11 1
    12    3   12 1
    13    4   13 1
    14    5   14 1
    15    5   15 1
    16    5   16 1
@<TRIPOS>MOLECULE
2,5-dimethyltetrahydrofuran
   19    19     0     0     0
SMALL
NO_CHARGES

@<TRIPOS>ATOM
      1 C1          0.4379    1.1032   -0.8866 C.3       1 <0>         0.0000
      2 C2         -0.9465    1.1034   -0.2868 C.3       1 <0>         0.0000
      3 C3          1.1657    0.1344    0.0305 C.3       1 <0>         0.0000
      4 C4         -1.1147   -0.3595    0.0889 C.3       1 <0>         0.0000
      5 C5          2.3395   -0.5598   -0.6326 C.3       1 <0>         0.0000
      6 C6         -2.0749   -0.5808    1.2417 C.3       1 <0>         0.0000
      7 O1          0.1931   -0.8409    0.4448 O.3       1 <0>         0.0000
      8 H1          0.3956    0.7194   -1.9130 H         1 <0>         0.0000
      9 H2          0.9009    2.0936   -0.9106 H         1 <0>         0.0000
     10 H3         -0.9629    1.7440    0.6035 H         1 <0>         0.0000
     11 H4         -1.7187    1.4562   -0.9761 H         1 <0>         0.0000
     12 H5          1.5061    0.6531    0.9345 H         1 <0>         0.0000
     13 H6         -1.4442   -0.9381   -0.7826 H         1 <0>         0.0000
     14 H7          2.0123   -1.0807   -1.5354 H         1 <0>         0.0000
     15 H8          2.7835   -1.2895    0.0485 H         1 <0>         0.0000
     16 H9          3.1050    0.1690   -0.9093 H         1 <0>         0.0000
     17 H10        -1.7567   -0.0088    2.1164 H         1 <0>         0.0000
     18 H11        -2.1078   -1.6390    1.5109 H         1 <0>         0.0000
     19 H12        -3.0819   -0.2607    0.9640 H         1 <0>         0.0000
@<TRIPOS>BOND
     1    1    2 1
     2    1    3 1
     3    2    4 1
     4    3    5 1
     5    3    7 1
     6    4    6 1
     7    4    7 1
     8    1    8 1
     9    1    9 1
    10    2   10 1
    11    2   11 1
    12    3   12 1
    13    4   13 1
    14    5   14 1
    15    5   15 1
    16    5   16 1
    17    6   17 1
    18    6   18 1
    19    6   19 1
@<TRIPOS>MOLECULE
tetrahydropyran
   16    16     0     0     0
SMALL
NO_CHARGES

@<TRIPOS>ATOM
      1 C1         -0.4603   -0.9422   -1.0405 C.3       1 <0>         0.0000
      2 C2         -0.4944   -1.2936    0.4430 C.3       1 <0>         0.0000
      3 C3         -0.5158    0.5693   -1.2346 C.3       1 <0>         0.0000
      4 C4          0.5547   -0.4986    1.2095 C.3       1 <0>         0.0000
      5 C5          0.5337    1.2625   -0.3753 C.3       1 <0>         0.0000
      6 O1          0.3821    0.9027    0.9978 O.3       1 <0>         0.0000
      7 H1          0.4632   -1.3324   -1.4856 H         1 <0>         0.0000
      8 H2         -1.2972   -1.4205   -1.5610 H         1 <0>         0.0000
      9 H3         -1.4881   -1.0489    0.8382 H         1 <0>         0.0000
     10 H4         -0.3370   -2.3679    0.5838 H         1 <0>         0.0000
     11 H5         -0.3732    0.8234   -2.2901 H         1 <0>         0.0000
     12 H6         -1.5109    0.9238   -0.9391 H         1 <0>         0.0000
     13 H7          0.4551   -0.6887    2.2829 H         1 <0>         0.0000
     14 H8          1.5696   -0.7895    0.9141 H         1 <0>         0.0000
     15 H9          1.5484    1.0130   -0.7074 H         1 <0>         0.0000
     16 H10         0.4185    2.3484   -0.4506 H         1 <0>         0.0000
@<TRIPOS>BOND
     1    1    2 1
     2    1    3 1
     3    2    4 1
     4    3    5 1
     5    4    6 1
     6    5    6 1
     7    1    7 1
     8    1    8 1
     9    2    9 1
    10    2   10 1
    11    3   11 1
    12    3   12 1
    13    4   13 1
    14    4   14 1
    15    5   15 1
    16    5   16 1
@<TRIPOS>MOLECULE
1,4-dioxane
   14    14     0     0     0
SMALL
NO_CHARGES

@<TRIPOS>ATOM
      1 C1         -0.1047    0.5471   -1.2847 C.3       1 <0>         0.0000
      2 C2          0.2264   -0.9151   -1.0354 C.3       1 <0>         0.0000
      3 C3         -0.2263    0.9151    1.0354 C.3       1 <0>         0.0000
      4 C4          0.1048   -0.5471    1.2847 C.3       1 <0>         0.0000
      5 O1          0.3671    1.3411   -0.1935 O.3       1 <0>         0.0000
      6 O2         -0.3672   -1.3411    0.1934 O.3       1 <0>         0.0000
      7 H1          0.3802    0.9005   -2.1995 H         1 <0>         0.0000
      8 H2         -1.1857    0.6970   -1.3875 H         1 <0>         0.0000
      9 H3         -0.1683   -1.5413   -1.8409 H         1 <0>         0.0000
     10 H4          1.3096   -1.0719   -0.9761 H         1 <0>         0.0000
     11 H5         -1.3096    1.0719    0.9762 H         1 <0>         0.0000
     12 H6          0.1684    1.5414    1.8410 H         1 <0>         0.0000
     13 H7          1.1857   -0.6971    1.3875 H         1 <0>         0.0000
     14 H8         -0.3801   -0.9005    2.1995 H         1 <0>         0.0000
@<TRIPOS>BOND
     1    1    2 1
     2    1    5 1
     3    2    6 1
     4    3    4 1
     5    3    5 1
     6    4    6 1
     7    1    7 1
     8    1    8 1
     9    2    9 1
    10    2   10 1
    11    3   11 1
    12    3   12 1
    13    4   13 1
    14    4   14 1
@<TRIPOS>MOLECULE
isobutraldehyde
   16    15     0     0     0
SMALL
NO_CHARGES

@<TRIPOS>ATOM
      1 C1          1.5129   -0.1145   -0.5302 C.2       1 <0>         0.0000
      2 C2         -0.5003    1.3184   -0.5167 C.3       1 <0>         0.0000
      3 C3         -0.7665   -1.1766   -0.5739 C.3       1 <0>         0.0000
      4 C4          0.1015   -0.0558    1.4972 C.3       1 <0>         0.0000
      5 C5          0.0756   -0.0164   -0.0339 C.3       1 <0>         0.0000
      6 O1          1.9371   -0.9974   -1.2695 O.2       1 <0>         0.0000
      7 H1          2.1914    0.6833   -0.1775 H         1 <0>         0.0000
      8 H2         -1.5378    1.4461   -0.1884 H         1 <0>         0.0000
      9 H3          0.0802    2.1654   -0.1331 H         1 <0>         0.0000
     10 H4         -0.4817    1.3833   -1.6109 H         1 <0>         0.0000
     11 H5         -1.8024   -1.1132   -0.2212 H         1 <0>         0.0000
     12 H6         -0.7947   -1.1705   -1.6696 H         1 <0>         0.0000
     13 H7         -0.3618   -2.1431   -0.2541 H         1 <0>         0.0000
     14 H8         -0.9096    0.0116    1.9136 H         1 <0>         0.0000
     15 H9          0.5554   -0.9852    1.8602 H         1 <0>         0.0000
     16 H10         0.6902    0.7727    1.9080 H         1 <0>         0.0000
@<TRIPOS>BOND
     1    1    5 1
     2    1    6 2
     3    2    5 1
     4    3    5 1
     5    4    5 1
     6    1    7 1
     7    2    8 1
     8    2    9 1
     9    2   10 1
    10    3   11 1
    11    3   12 1
    12    3   13 1
    13    4   14 1
    14    4   15 1
    15    4   16 1
@<TRIPOS>MOLECULE
formaldehyde
    4     3     0     0     0
SMALL
NO_CHARGES

@<TRIPOS>ATOM
      1 C1          0.0059    0.0101   -0.0041 C.2       1 <0>         0.0000
      2 O1         -0.5765   -0.9882    0.4011 O.2       1 <0>         0.0000
      3 H1          0.0774    0.9322    0.5945 H         1 <0>         0.0000
      4 H2          0.4933    0.0460   -0.9915 H         1 <0>         0.0000
@<TRIPOS>BOND
     1    1    2 2
     2    1    3 1
     3    1    4 1
@<TRIPOS>MOLECULE
acetaldehyde
    7     6     0     0     0
SMALL
NO_CHARGES

@<TRIPOS>ATOM
      1 C1         -1.5033   -0.9603    1.1512 C.2       1 <0>         0.0000
      2 C2         -0.5886   -0.9197   -0.0340 C.3       1 <0>         0.0000
      3 O1         -1.4762   -1.8492    1.9958 O.2       1 <0>         0.0000
      4 H1         -2.2225   -0.1273    1.2270 H         1 <0>         0.0000
      5 H2          0.3159   -0.3674    0.2312 H         1 <0>         0.0000
      6 H3         -0.3196   -1.9351   -0.3350 H         1 <0>         0.0000
      7 H4         -1.0967   -0.4179   -0.8607 H         1 <0>         0.0000
@<TRIPOS>BOND
     1    1    2 1
     2    1    3 2
     3    1    4 1
     4    2    5 1
     5    2    6 1
     6    2    7 1
@<TRIPOS>MOLECULE
priopionaldehyde
   10     9     0     0     0
SMALL
NO_CHARGES

@<TRIPOS>ATOM
      1 C1         -1.5416   -2.3179    0.1522 C.2       1 <0>         0.0000
      2 C2          0.4289   -0.8128    0.5955 C.3       1 <0>         0.0000
      3 C3         -0.6597   -1.6801    1.1974 C.3       1 <0>         0.0000
      4 O1         -1.3945   -2.1900   -1.0585 O.2       1 <0>         0.0000
      5 H1         -2.3649   -2.9347    0.5523 H         1 <0>         0.0000
      6 H2          0.0001   -0.0036   -0.0049 H         1 <0>         0.0000
      7 H3          1.0849   -1.4005   -0.0553 H         1 <0>         0.0000
      8 H4          1.0411   -0.3660    1.3847 H         1 <0>         0.0000
      9 H5         -0.2139   -2.4828    1.7934 H         1 <0>         0.0000
     10 H6         -1.2989   -1.0801    1.8530 H         1 <0>         0.0000
@<TRIPOS>BOND
     1    1    3 1
     2    1    4 2
     3    2    3 1
     4    1    5 1
     5    2    6 1
     6    2    7 1
     7    2    8 1
     8    3    9 1
     9    3   10 1
@<TRIPOS>MOLECULE
butraldehyde
   13    12     0     0     0
SMALL
NO_CHARGES

@<TRIPOS>ATOM
      1 C1          1.4929    1.2003   -0.8111 C.2       1 <0>         0.0000
      2 C2         -1.2663   -1.0584    0.6899 C.3       1 <0>         0.0000
      3 C3          0.8304    0.2084    0.1144 C.3       1 <0>         0.0000
      4 C4         -0.6335   -0.0320   -0.2353 C.3       1 <0>         0.0000
      5 O1          0.9273    1.7880   -1.7268 O.2       1 <0>         0.0000
      6 H1          2.5639    1.3777   -0.6117 H         1 <0>         0.0000
      7 H2         -0.7281   -2.0107    0.6461 H         1 <0>         0.0000
      8 H3         -1.2423   -0.7020    1.7244 H         1 <0>         0.0000
      9 H4         -2.3107   -1.2407    0.4175 H         1 <0>         0.0000
     10 H5          0.9217    0.5978    1.1341 H         1 <0>         0.0000
     11 H6          1.3970   -0.7271    0.0540 H         1 <0>         0.0000
     12 H7         -1.1933    0.9087   -0.1693 H         1 <0>         0.0000
     13 H8         -0.7187   -0.3782   -1.2723 H         1 <0>         0.0000
@<TRIPOS>BOND
     1    1    3 1
     2    1    5 2
     3    2    4 1
     4    3    4 1
     5    1    6 1
     6    2    7 1
     7    2    8 1
     8    2    9 1
     9    3   10 1
    10    3   11 1
    11    4   12 1
    12    4   13 1
@<TRIPOS>MOLECULE
pentanal
   16    15     0     0     0
SMALL
NO_CHARGES

@<TRIPOS>ATOM
      1 C1          1.7927   -1.8633    0.7620 C.2       1 <0>         0.0000
      2 C2         -1.1072    1.9827   -0.7362 C.3       1 <0>         0.0000
      3 C3          0.3998   -1.3953    0.4152 C.3       1 <0>         0.0000
      4 C4         -1.0622    0.5172   -0.3337 C.3       1 <0>         0.0000
      5 C5          0.3521    0.0848    0.0501 C.3       1 <0>         0.0000
      6 O1          2.7960   -1.1591    0.7265 O.2       1 <0>         0.0000
      7 H1          1.8649   -2.9224    1.0638 H         1 <0>         0.0000
      8 H2         -0.7472    2.6122    0.0836 H         1 <0>         0.0000
      9 H3         -2.1290    2.2918   -0.9784 H         1 <0>         0.0000
     10 H4         -0.4749    2.1692   -1.6103 H         1 <0>         0.0000
     11 H5          0.0460   -2.0073   -0.4216 H         1 <0>         0.0000
     12 H6         -0.2402   -1.5971    1.2807 H         1 <0>         0.0000
     13 H7         -1.4259   -0.0956   -1.1667 H         1 <0>         0.0000
     14 H8         -1.7431    0.3551    0.5101 H         1 <0>         0.0000
     15 H9          0.7060    0.6861    0.8970 H         1 <0>         0.0000
     16 H10         1.0381    0.2816   -0.7834 H         1 <0>         0.0000
@<TRIPOS>BOND
     1    1    3 1
     2    1    6 2
     3    2    4 1
     4    3    5 1
     5    4    5 1
     6    1    7 1
     7    2    8 1
     8    2    9 1
     9    2   10 1
    10    3   11 1
    11    3   12 1
    12    4   13 1
    13    4   14 1
    14    5   15 1
    15    5   16 1
@<TRIPOS>MOLECULE
hexanal
   19    18     0     0     0
SMALL
NO_CHARGES

@<TRIPOS>ATOM
      1 C1          0.6191    1.6296   -3.0990 C.2       1 <0>         0.0000
      2 C2         -0.6354   -0.8386    2.6565 C.3       1 <0>         0.0000
      3 C3          0.0906    0.5807   -2.1481 C.3       1 <0>         0.0000
      4 C4         -0.0529    0.2129    1.7256 C.3       1 <0>         0.0000
      5 C5          0.3053    0.9146   -0.6744 C.3       1 <0>         0.0000
      6 C6         -0.3082   -0.1341    0.2585 C.3       1 <0>         0.0000
      7 O1          1.2316    2.6372   -2.7629 O.2       1 <0>         0.0000
      8 H1          0.3964    1.4431   -4.1638 H         1 <0>         0.0000
      9 H2         -1.7130   -0.9360    2.4913 H         1 <0>         0.0000
     10 H3         -0.4756   -0.5662    3.7046 H         1 <0>         0.0000
     11 H4         -0.1752   -1.8162    2.4810 H         1 <0>         0.0000
     12 H5          0.5595   -0.3758   -2.4022 H         1 <0>         0.0000
     13 H6         -0.9830    0.4907   -2.3481 H         1 <0>         0.0000
     14 H7          1.0251    0.2952    1.9063 H         1 <0>         0.0000
     15 H8         -0.4969    1.1869    1.9611 H         1 <0>         0.0000
     16 H9          1.3756    1.0229   -0.4613 H         1 <0>         0.0000
     17 H10        -0.1612    1.8856   -0.4678 H         1 <0>         0.0000
     18 H11        -1.3886   -0.1955    0.0797 H         1 <0>         0.0000
     19 H12         0.1099   -1.1237    0.0415 H         1 <0>         0.0000
@<TRIPOS>BOND
     1    1    3 1
     2    1    7 2
     3    2    4 1
     4    3    5 1
     5    4    6 1
     6    5    6 1
     7    1    8 1
     8    2    9 1
     9    2   10 1
    10    2   11 1
    11    3   12 1
    12    3   13 1
    13    4   14 1
    14    4   15 1
    15    5   16 1
    16    5   17 1
    17    6   18 1
    18    6   19 1
@<TRIPOS>MOLECULE
heptanal
   22    21     0     0     0
SMALL
NO_CHARGES

@<TRIPOS>ATOM
      1 C1          3.9871   -0.7779    0.6849 C.2       1 <0>         0.0000
      2 C2         -3.5184   -0.1737    0.1176 C.3       1 <0>         0.0000
      3 C3          2.8539   -0.1863   -0.1117 C.3       1 <0>         0.0000
      4 C4         -2.1798    0.2447   -0.4690 C.3       1 <0>         0.0000
      5 C5          1.4998   -0.5915    0.4617 C.3       1 <0>         0.0000
      6 C6         -1.0132   -0.3836    0.2930 C.3       1 <0>         0.0000
      7 C7          0.3307    0.0137   -0.3211 C.3       1 <0>         0.0000
      8 O1          3.8196   -1.4449    1.7011 O.2       1 <0>         0.0000
      9 H1          5.0033   -0.5422    0.3251 H         1 <0>         0.0000
     10 H2         -3.6177   -1.2635    0.0958 H         1 <0>         0.0000
     11 H3         -4.3481    0.2547   -0.4536 H         1 <0>         0.0000
     12 H4         -3.6108    0.1550    1.1576 H         1 <0>         0.0000
     13 H5          2.9601    0.9030   -0.1414 H         1 <0>         0.0000
     14 H6          2.9487   -0.5642   -1.1353 H         1 <0>         0.0000
     15 H7         -2.0996    1.3375   -0.4382 H         1 <0>         0.0000
     16 H8         -2.1401   -0.0539   -1.5230 H         1 <0>         0.0000
     17 H9          1.4221   -1.6850    0.4344 H         1 <0>         0.0000
     18 H10         1.4321   -0.2900    1.5141 H         1 <0>         0.0000
     19 H11        -1.0458   -0.0656    1.3422 H         1 <0>         0.0000
     20 H12        -1.1136   -1.4757    0.2829 H         1 <0>         0.0000
     21 H13         0.3722   -0.3259   -1.3633 H         1 <0>         0.0000
     22 H14         0.4153    1.1068   -0.3337 H         1 <0>         0.0000
@<TRIPOS>BOND
     1    1    3 1
     2    1    8 2
     3    2    4 1
     4    3    5 1
     5    4    6 1
     6    5    7 1
     7    6    7 1
     8    1    9 1
     9    2   10 1
    10    2   11 1
    11    2   12 1
    12    3   13 1
    13    3   14 1
    14    4   15 1
    15    4   16 1
    16    5   17 1
    17    5   18 1
    18    6   19 1
    19    6   20 1
    20    7   21 1
    21    7   22 1
@<TRIPOS>MOLECULE
octanal
   25    24     0     0     0
SMALL
NO_CHARGES

@<TRIPOS>ATOM
      1 C1         -0.4797    4.3619    2.0731 C.2       1 <0>         0.0000
      2 C2          1.0303   -3.8171   -1.0869 C.3       1 <0>         0.0000
      3 C3          0.4248    3.1793    1.8193 C.3       1 <0>         0.0000
      4 C4          0.1028   -2.6355   -0.8516 C.3       1 <0>         0.0000
      5 C5         -0.2691    2.0709    1.0328 C.3       1 <0>         0.0000
      6 C6          0.8105   -1.5090   -0.0992 C.3       1 <0>         0.0000
      7 C7          0.6050    0.8305    0.8299 C.3       1 <0>         0.0000
      8 C8         -0.1160   -0.3081    0.1050 C.3       1 <0>         0.0000
      9 O1         -1.6532    4.4325    1.7241 O.2       1 <0>         0.0000
     10 H1         -0.0052    5.2027    2.6081 H         1 <0>         0.0000
     11 H2          1.9157   -3.5139   -1.6547 H         1 <0>         0.0000
     12 H3          0.5136   -4.5973   -1.6546 H         1 <0>         0.0000
     13 H4          1.3620   -4.2507   -0.1380 H         1 <0>         0.0000
     14 H5          0.7557    2.8057    2.7942 H         1 <0>         0.0000
     15 H6          1.2997    3.5550    1.2796 H         1 <0>         0.0000
     16 H7         -0.7712   -2.9724   -0.2821 H         1 <0>         0.0000
     17 H8         -0.2617   -2.2668   -1.8175 H         1 <0>         0.0000
     18 H9         -0.5977    2.4553    0.0592 H         1 <0>         0.0000
     19 H10        -1.1789    1.7658    1.5654 H         1 <0>         0.0000
     20 H11         1.1553   -1.8779    0.8745 H         1 <0>         0.0000
     21 H12         1.7000   -1.1951   -0.6594 H         1 <0>         0.0000
     22 H13         1.5119    1.1060    0.2781 H         1 <0>         0.0000
     23 H14         0.9308    0.4774    1.8162 H         1 <0>         0.0000
     24 H15        -0.9938   -0.6164    0.6857 H         1 <0>         0.0000
     25 H16        -0.4759    0.0362   -0.8710 H         1 <0>         0.0000
@<TRIPOS>BOND
     1    1    3 1
     2    1    9 2
     3    2    4 1
     4    3    5 1
     5    4    6 1
     6    5    7 1
     7    6    8 1
     8    7    8 1
     9    1   10 1
    10    2   11 1
    11    2   12 1
    12    2   13 1
    13    3   14 1
    14    3   15 1
    15    4   16 1
    16    4   17 1
    17    5   18 1
    18    5   19 1
    19    6   20 1
    20    6   21 1
    21    7   22 1
    22    7   23 1
    23    8   24 1
    24    8   25 1
@<TRIPOS>MOLECULE
nonanal
   28    27     0     0     0
SMALL
NO_CHARGES

@<TRIPOS>ATOM
      1 C1          0.7585   -4.8486   -1.5235 C.2       1 <0>         0.0000
      2 C2         -0.9069    4.8955    0.7916 C.3       1 <0>         0.0000
      3 C3         -0.1750   -3.8252   -0.9198 C.3       1 <0>         0.0000
      4 C4         -1.4316    3.4720    0.9030 C.3       1 <0>         0.0000
      5 C5          0.3648   -2.3980   -0.9519 C.3       1 <0>         0.0000
      6 C6         -0.4883    2.4759    0.2275 C.3       1 <0>         0.0000
      7 C7         -0.6057   -1.3910   -0.3265 C.3       1 <0>         0.0000
      8 C8         -1.0077    1.0354    0.2493 C.3       1 <0>         0.0000
      9 C9         -0.0524    0.0344   -0.4043 C.3       1 <0>         0.0000
     10 O1          1.8834   -4.6088   -1.9484 O.2       1 <0>         0.0000
     11 H1          0.3469   -5.8712   -1.5844 H         1 <0>         0.0000
     12 H2          0.0857    4.9848    1.2445 H         1 <0>         0.0000
     13 H3         -0.8276    5.1889   -0.2599 H         1 <0>         0.0000
     14 H4         -1.5779    5.6011    1.2918 H         1 <0>         0.0000
     15 H5         -0.3986   -4.1331    0.1069 H         1 <0>         0.0000
     16 H6         -1.1065   -3.8749   -1.4946 H         1 <0>         0.0000
     17 H7         -2.4240    3.4181    0.4411 H         1 <0>         0.0000
     18 H8         -1.5508    3.2255    1.9633 H         1 <0>         0.0000
     19 H9          0.5385   -2.1167   -1.9978 H         1 <0>         0.0000
     20 H10         1.3345   -2.3473   -0.4422 H         1 <0>         0.0000
     21 H11         0.4989    2.5183    0.7036 H         1 <0>         0.0000
     22 H12        -0.3461    2.7714   -0.8195 H         1 <0>         0.0000
     23 H13        -0.7953   -1.6497    0.7214 H         1 <0>         0.0000
     24 H14        -1.5688   -1.4389   -0.8493 H         1 <0>         0.0000
     25 H15        -1.9685    1.0109   -0.2801 H         1 <0>         0.0000
     26 H16        -1.2103    0.7331    1.2841 H         1 <0>         0.0000
     27 H17         0.1070    0.3095   -1.4538 H         1 <0>         0.0000
     28 H18         0.9233    0.0663    0.0930 H         1 <0>         0.0000
@<TRIPOS>BOND
     1    1    3 1
     2    1   10 2
     3    2    4 1
     4    3    5 1
     5    4    6 1
     6    5    7 1
     7    6    8 1
     8    7    9 1
     9    8    9 1
    10    1   11 1
    11    2   12 1
    12    2   13 1
    13    2   14 1
    14    3   15 1
    15    3   16 1
    16    4   17 1
    17    4   18 1
    18    5   19 1
    19    5   20 1
    20    6   21 1
    21    6   22 1
    22    7   23 1
    23    7   24 1
    24    8   25 1
    25    8   26 1
    26    9   27 1
    27    9   28 1
@<TRIPOS>MOLECULE
E-2-butenal
   11    10     0     0     0
SMALL
NO_CHARGES

@<TRIPOS>ATOM
      1 C1         -1.2229   -1.5179   -0.8034 C.2       1 <0>         0.0000
      2 C2         -0.9450   -0.2508   -0.4750 C.2       1 <0>         0.0000
      3 C3         -0.2303   -2.5702   -0.5137 C.2       1 <0>         0.0000
      4 C4         -1.8802    0.8865   -0.7247 C.3       1 <0>         0.0000
      5 O1         -0.4327   -3.7461   -0.7915 O.2       1 <0>         0.0000
      6 H1         -2.1529   -1.8078   -1.2777 H         1 <0>         0.0000
      7 H2          0.0000    0.0000    0.0000 H         1 <0>         0.0000
      8 H3          0.7053   -2.2409   -0.0314 H         1 <0>         0.0000
      9 H4         -1.6876    1.3175   -1.7121 H         1 <0>         0.0000
     10 H5         -1.7266    1.6666    0.0273 H         1 <0>         0.0000
     11 H6         -2.9297    0.5772   -0.6861 H         1 <0>         0.0000
@<TRIPOS>BOND
     1    1    2 2
     2    1    3 1
     3    2    4 1
     4    3    5 2
     5    1    6 1
     6    2    7 1
     7    3    8 1
     8    4    9 1
     9    4   10 1
    10    4   11 1
@<TRIPOS>MOLECULE
E-2-hexenal
   17    16     0     0     0
SMALL
NO_CHARGES

@<TRIPOS>ATOM
      1 C1          0.4277   -0.6333   -1.9846 C.2       1 <0>         0.0000
      2 C2         -0.4112   -0.3116   -0.9925 C.2       1 <0>         0.0000
      3 C3          0.0180   -1.6511   -2.9710 C.2       1 <0>         0.0000
      4 C4          0.1852    1.1417    2.5244 C.3       1 <0>         0.0000
      5 C5         -0.0929    0.7142    0.0569 C.3       1 <0>         0.0000
      6 C6         -0.1633    0.1124    1.4606 C.3       1 <0>         0.0000
      7 O1          0.7455   -1.9837   -3.8988 O.2       1 <0>         0.0000
      8 H1          1.4032   -0.1754   -2.0963 H         1 <0>         0.0000
      9 H2         -1.3842   -0.7921   -0.9207 H         1 <0>         0.0000
     10 H3         -0.9803   -2.0971   -2.8280 H         1 <0>         0.0000
     11 H4          1.1875    1.5507    2.3608 H         1 <0>         0.0000
     12 H5         -0.5301    1.9704    2.5178 H         1 <0>         0.0000
     13 H6          0.1637    0.6823    3.5175 H         1 <0>         0.0000
     14 H7          0.9018    1.1457   -0.1098 H         1 <0>         0.0000
     15 H8         -0.8141    1.5355   -0.0317 H         1 <0>         0.0000
     16 H9         -1.1709   -0.2754    1.6544 H         1 <0>         0.0000
     17 H10         0.5285   -0.7348    1.5415 H         1 <0>         0.0000
@<TRIPOS>BOND
     1    1    2 2
     2    1    3 1
     3    2    5 1
     4    3    7 2
     5    4    6 1
     6    5    6 1
     7    1    8 1
     8    2    9 1
     9    3   10 1
    10    4   11 1
    11    4   12 1
    12    4   13 1
    13    5   14 1
    14    5   15 1
    15    6   16 1
    16    6   17 1
@<TRIPOS>MOLECULE
E-2-octenal
   23    22     0     0     0
SMALL
NO_CHARGES

@<TRIPOS>ATOM
      1 C1          2.6371    2.9808    1.3422 C.2       1 <0>         0.0000
      2 C2          2.3298    1.7099    1.0556 C.2       1 <0>         0.0000
      3 C3          4.0450    3.3394    1.5983 C.2       1 <0>         0.0000
      4 C4         -2.2743   -0.7371   -2.6252 C.3       1 <0>         0.0000
      5 C5          0.9274    1.2411    0.7899 C.3       1 <0>         0.0000
      6 C6         -0.8475   -0.3008   -2.3326 C.3       1 <0>         0.0000
      7 C7          0.7301    0.6837   -0.6238 C.3       1 <0>         0.0000
      8 C8         -0.7155    0.2749   -0.9220 C.3       1 <0>         0.0000
      9 O1          4.3829    4.4866    1.8645 O.2       1 <0>         0.0000
     10 H1          1.8916    3.7653    1.3923 H         1 <0>         0.0000
     11 H2          3.1113    0.9547    1.0248 H         1 <0>         0.0000
     12 H3          4.7782    2.5180    1.5368 H         1 <0>         0.0000
     13 H4         -2.6108   -1.4883   -1.9035 H         1 <0>         0.0000
     14 H5         -2.3392   -1.1748   -3.6263 H         1 <0>         0.0000
     15 H6         -2.9614    0.1140   -2.5815 H         1 <0>         0.0000
     16 H7          0.6657    0.4766    1.5314 H         1 <0>         0.0000
     17 H8          0.2203    2.0673    0.9368 H         1 <0>         0.0000
     18 H9         -0.5430    0.4494   -3.0717 H         1 <0>         0.0000
     19 H10        -0.1774   -1.1607   -2.4478 H         1 <0>         0.0000
     20 H11         1.3965   -0.1738   -0.7810 H         1 <0>         0.0000
     21 H12         1.0360    1.4562   -1.3406 H         1 <0>         0.0000
     22 H13        -1.3726    1.1471   -0.8189 H         1 <0>         0.0000
     23 H14        -1.0531   -0.4737   -0.1962 H         1 <0>         0.0000
@<TRIPOS>BOND
     1    1    2 2
     2    1    3 1
     3    2    5 1
     4    3    9 2
     5    4    6 1
     6    5    7 1
     7    6    8 1
     8    7    8 1
     9    1   10 1
    10    2   11 1
    11    3   12 1
    12    4   13 1
    13    4   14 1
    14    4   15 1
    15    5   16 1
    16    5   17 1
    17    6   18 1
    18    6   19 1
    19    7   20 1
    20    7   21 1
    21    8   22 1
    22    8   23 1
@<TRIPOS>MOLECULE
2-propanone
   10     9     0     0     0
SMALL
NO_CHARGES

@<TRIPOS>ATOM
      1 C1         -0.0565   -0.4470    2.0875 C.2       1 <0>         0.0000
      2 C2         -0.7025   -0.4113    0.7289 C.3       1 <0>         0.0000
      3 C3          0.3848    0.8720    2.6618 C.3       1 <0>         0.0000
      4 O1          0.1012   -1.5023    2.6993 O.2       1 <0>         0.0000
      5 H1          0.0630   -0.5189   -0.0436 H         1 <0>         0.0000
      6 H2         -1.4345   -1.2187    0.6501 H         1 <0>         0.0000
      7 H3         -1.2142    0.5449    0.5888 H         1 <0>         0.0000
      8 H4         -0.4296    1.3116    3.2444 H         1 <0>         0.0000
      9 H5          0.6478    1.5552    1.8505 H         1 <0>         0.0000
     10 H6          1.2448    0.7166    3.3178 H         1 <0>         0.0000
@<TRIPOS>BOND
     1    1    2 1
     2    1    3 1
     3    1    4 2
     4    2    5 1
     5    2    6 1
     6    2    7 1
     7    3    8 1
     8    3    9 1
     9    3   10 1
@<TRIPOS>MOLECULE
2-butanone
   13    12     0     0     0
SMALL
NO_CHARGES

@<TRIPOS>ATOM
      1 C1          0.7570    0.5057   -1.9361 C.2       1 <0>         0.0000
      2 C2          0.8396   -0.2698   -0.6470 C.3       1 <0>         0.0000
      3 C3          1.6992    1.0628   -4.2128 C.3       1 <0>         0.0000
      4 C4          1.8758    0.2660   -2.9330 C.3       1 <0>         0.0000
      5 O1         -0.1717    1.2834   -2.1497 O.2       1 <0>         0.0000
      6 H1          1.4024    0.3064    0.0915 H         1 <0>         0.0000
      7 H2         -0.1671   -0.4518   -0.2608 H         1 <0>         0.0000
      8 H3          1.3273   -1.2307   -0.8282 H         1 <0>         0.0000
      9 H4          0.7562    0.7967   -4.7003 H         1 <0>         0.0000
     10 H5          2.5154    0.8645   -4.9154 H         1 <0>         0.0000
     11 H6          1.6871    2.1384   -4.0081 H         1 <0>         0.0000
     12 H7          2.8225    0.5427   -2.4571 H         1 <0>         0.0000
     13 H8          1.9007   -0.8033   -3.1678 H         1 <0>         0.0000
@<TRIPOS>BOND
     1    1    2 1
     2    1    4 1
     3    1    5 2
     4    3    4 1
     5    2    6 1
     6    2    7 1
     7    2    8 1
     8    3    9 1
     9    3   10 1
    10    3   11 1
    11    4   12 1
    12    4   13 1
@<TRIPOS>MOLECULE
2-pentanone
   16    15     0     0     0
SMALL
NO_CHARGES

@<TRIPOS>ATOM
      1 C1          0.3030    1.1397   -1.7827 C.2       1 <0>         0.0000
      2 C2          0.3779    1.0134   -0.2831 C.3       1 <0>         0.0000
      3 C3          1.9176   -0.5868   -4.8565 C.3       1 <0>         0.0000
      4 C4          1.1477    0.1606   -2.5789 C.3       1 <0>         0.0000
      5 C5          1.0381    0.3830   -4.0845 C.3       1 <0>         0.0000
      6 O1         -0.4074    1.9930   -2.3121 O.2       1 <0>         0.0000
      7 H1          1.1822    1.6472    0.0984 H         1 <0>         0.0000
      8 H2          0.5588   -0.0297   -0.0119 H         1 <0>         0.0000
      9 H3         -0.5675    1.3352    0.1626 H         1 <0>         0.0000
     10 H4          2.9660   -0.4894   -4.5569 H         1 <0>         0.0000
     11 H5          1.8501   -0.4050   -5.9339 H         1 <0>         0.0000
     12 H6          1.6039   -1.6178   -4.6653 H         1 <0>         0.0000
     13 H7          0.8163   -0.8527   -2.3260 H         1 <0>         0.0000
     14 H8          2.1892    0.2774   -2.2591 H         1 <0>         0.0000
     15 H9         -0.0032    0.2616   -4.4060 H         1 <0>         0.0000
     16 H10         1.3283    1.4109   -4.3328 H         1 <0>         0.0000
@<TRIPOS>BOND
     1    1    2 1
     2    1    4 1
     3    1    6 2
     4    3    5 1
     5    4    5 1
     6    2    7 1
     7    2    8 1
     8    2    9 1
     9    3   10 1
    10    3   11 1
    11    3   12 1
    12    4   13 1
    13    4   14 1
    14    5   15 1
    15    5   16 1
@<TRIPOS>MOLECULE
3-pentanone
   16    15     0     0     0
SMALL
NO_CHARGES

@<TRIPOS>ATOM
      1 C1         -2.3713    0.3190   -1.4483 C.2       1 <0>         0.0000
      2 C2          0.1198    0.0446   -1.1087 C.3       1 <0>         0.0000
      3 C3         -4.8794    0.4930   -1.7249 C.3       1 <0>         0.0000
      4 C4         -0.9876    0.8895   -1.7119 C.3       1 <0>         0.0000
      5 C5         -3.5272    1.1011   -2.0503 C.3       1 <0>         0.0000
      6 O1         -2.5441   -0.7069   -0.7921 O.2       1 <0>         0.0000
      7 H1          0.0939   -0.9687   -1.5213 H         1 <0>         0.0000
      8 H2          1.1037    0.4758   -1.3215 H         1 <0>         0.0000
      9 H3          0.0127   -0.0259   -0.0211 H         1 <0>         0.0000
     10 H4         -5.0430    0.4523   -0.6429 H         1 <0>         0.0000
     11 H5         -4.9546   -0.5281   -2.1137 H         1 <0>         0.0000
     12 H6         -5.6821    1.0886   -2.1703 H         1 <0>         0.0000
     13 H7         -0.9486    1.8990   -1.2896 H         1 <0>         0.0000
     14 H8         -0.8469    0.9568   -2.7957 H         1 <0>         0.0000
     15 H9         -3.3911    1.1290   -3.1363 H         1 <0>         0.0000
     16 H10        -3.4843    2.1249   -1.6643 H         1 <0>         0.0000
@<TRIPOS>BOND
     1    1    4 1
     2    1    5 1
     3    1    6 2
     4    2    4 1
     5    3    5 1
     6    2    7 1
     7    2    8 1
     8    2    9 1
     9    3   10 1
    10    3   11 1
    11    3   12 1
    12    4   13 1
    13    4   14 1
    14    5   15 1
    15    5   16 1
@<TRIPOS>MOLECULE
3-methyl-2-butanone
   16    15     0     0     0
SMALL
NO_CHARGES

@<TRIPOS>ATOM
      1 C1         -0.0457    2.1350   -0.1210 C.2       1 <0>         0.0000
      2 C2          0.1910    0.8581    0.6456 C.3       1 <0>         0.0000
      3 C3          1.7494    3.8113    0.3319 C.3       1 <0>         0.0000
      4 C4         -0.6398    4.5643    0.1508 C.3       1 <0>         0.0000
      5 C5          0.2943    3.4405    0.5922 C.3       1 <0>         0.0000
      6 O1         -0.4680    2.1055   -1.2770 O.2       1 <0>         0.0000
      7 H1         -0.7063    0.5883    1.2067 H         1 <0>         0.0000
      8 H2          1.0184    1.0000    1.3469 H         1 <0>         0.0000
      9 H3          0.4593    0.0568   -0.0474 H         1 <0>         0.0000
     10 H4          1.9317    3.9774   -0.7357 H         1 <0>         0.0000
     11 H5          2.0227    4.7240    0.8717 H         1 <0>         0.0000
     12 H6          2.4249    3.0146    0.6598 H         1 <0>         0.0000
     13 H7         -0.5280    4.7647   -0.9203 H         1 <0>         0.0000
     14 H8         -0.4279    5.4965    0.6860 H         1 <0>         0.0000
     15 H9         -1.6850    4.2968    0.3377 H         1 <0>         0.0000
     16 H10         0.1432    3.2810    1.6665 H         1 <0>         0.0000
@<TRIPOS>BOND
     1    1    2 1
     2    1    5 1
     3    1    6 2
     4    3    5 1
     5    4    5 1
     6    2    7 1
     7    2    8 1
     8    2    9 1
     9    3   10 1
    10    3   11 1
    11    3   12 1
    12    4   13 1
    13    4   14 1
    14    4   15 1
    15    5   16 1
@<TRIPOS>MOLECULE
2-hexanone
   19    18     0     0     0
SMALL
NO_CHARGES

@<TRIPOS>ATOM
      1 C1          1.2122   -0.7902    1.6756 C.2       1 <0>         0.0000
      2 C2          0.0180   -0.0066    1.0982 C.3       1 <0>         0.0000
      3 C3          5.2091   -3.8038    0.9405 C.3       1 <0>         0.0000
      4 C4          2.1100   -1.4926    0.6670 C.3       1 <0>         0.0000
      5 C5          4.1008   -2.9946    0.2859 C.3       1 <0>         0.0000
      6 C6          3.2452   -2.2727    1.3260 C.3       1 <0>         0.0000
      7 O1          1.4370   -0.8530    2.8896 O.2       1 <0>         0.0000
      8 H1         -0.8758   -0.6374    1.0124 H         1 <0>         0.0000
      9 H2         -0.2653    0.8581    1.7111 H         1 <0>         0.0000
     10 H3          0.2342    0.3779    0.0934 H         1 <0>         0.0000
     11 H4          5.8563   -3.1630    1.5480 H         1 <0>         0.0000
     12 H5          4.7827   -4.5721    1.5931 H         1 <0>         0.0000
     13 H6          5.8277   -4.3026    0.1876 H         1 <0>         0.0000
     14 H7          2.5218   -0.7283   -0.0013 H         1 <0>         0.0000
     15 H8          1.4830   -2.1718    0.0787 H         1 <0>         0.0000
     16 H9          3.4727   -3.6641   -0.3133 H         1 <0>         0.0000
     17 H10         4.5458   -2.2655   -0.4011 H         1 <0>         0.0000
     18 H11         3.8731   -1.5886    1.9104 H         1 <0>         0.0000
     19 H12         2.8302   -3.0018    2.0333 H         1 <0>         0.0000
@<TRIPOS>BOND
     1    1    2 1
     2    1    4 1
     3    1    7 2
     4    3    5 1
     5    4    6 1
     6    5    6 1
     7    2    8 1
     8    2    9 1
     9    2   10 1
    10    3   11 1
    11    3   12 1
    12    3   13 1
    13    4   14 1
    14    4   15 1
    15    5   16 1
    16    5   17 1
    17    6   18 1
    18    6   19 1
@<TRIPOS>MOLECULE
4-methyl-2-pentanone
   19    18     0     0     0
SMALL
NO_CHARGES

@<TRIPOS>ATOM
      1 C1          1.9779   -0.5642    0.5921 C.2       1 <0>         0.0000
      2 C2          2.1577    0.8849    0.2199 C.3       1 <0>         0.0000
      3 C3          4.7488   -1.8026    0.2531 C.3       1 <0>         0.0000
      4 C4          5.1204   -1.4658    2.7050 C.3       1 <0>         0.0000
      5 C5          2.8340   -1.0707    1.7426 C.3       1 <0>         0.0000
      6 C6          4.3444   -0.9798    1.4791 C.3       1 <0>         0.0000
      7 O1          1.2040   -1.2864   -0.0343 O.2       1 <0>         0.0000
      8 H1          2.9411    0.9736   -0.5366 H         1 <0>         0.0000
      9 H2          1.2233    1.2799   -0.1885 H         1 <0>         0.0000
     10 H3          2.4238    1.4615    1.1091 H         1 <0>         0.0000
     11 H4          4.4882   -2.8573    0.3927 H         1 <0>         0.0000
     12 H5          4.2401   -1.4471   -0.6497 H         1 <0>         0.0000
     13 H6          5.8273   -1.7507    0.0751 H         1 <0>         0.0000
     14 H7          4.8780   -2.5099    2.9301 H         1 <0>         0.0000
     15 H8          4.8843   -0.8644    3.5896 H         1 <0>         0.0000
     16 H9          6.2000   -1.4048    2.5314 H         1 <0>         0.0000
     17 H10         2.5691   -0.4639    2.6167 H         1 <0>         0.0000
     18 H11         2.5519   -2.1087    1.9534 H         1 <0>         0.0000
     19 H12         4.6222    0.0661    1.2978 H         1 <0>         0.0000
@<TRIPOS>BOND
     1    1    2 1
     2    1    5 1
     3    1    7 2
     4    3    6 1
     5    4    6 1
     6    5    6 1
     7    2    8 1
     8    2    9 1
     9    2   10 1
    10    3   11 1
    11    3   12 1
    12    3   13 1
    13    4   14 1
    14    4   15 1
    15    4   16 1
    16    5   17 1
    17    5   18 1
    18    6   19 1
@<TRIPOS>MOLECULE
2-heptanone
   22    21     0     0     0
SMALL
NO_CHARGES

@<TRIPOS>ATOM
      1 C1          1.0892    1.5725    1.4681 C.2       1 <0>         0.0000
      2 C2          2.4355    1.1399    0.9496 C.3       1 <0>         0.0000
      3 C3         -3.2588    0.4562    5.9973 C.3       1 <0>         0.0000
      4 C4          0.4906    0.7790    2.6121 C.3       1 <0>         0.0000
      5 C5         -2.7150    1.1916    4.7828 C.3       1 <0>         0.0000
      6 C6         -0.8378    1.3482    3.1007 C.3       1 <0>         0.0000
      7 C7         -1.4004    0.5789    4.2991 C.3       1 <0>         0.0000
      8 O1          0.5040    2.5449    0.9907 O.2       1 <0>         0.0000
      9 H1          2.3074    0.4091    0.1483 H         1 <0>         0.0000
     10 H2          2.9881    2.0090    0.5840 H         1 <0>         0.0000
     11 H3          3.0098    0.6830    1.7606 H         1 <0>         0.0000
     12 H4         -3.4231   -0.6028    5.7737 H         1 <0>         0.0000
     13 H5         -2.5501    0.5218    6.8287 H         1 <0>         0.0000
     14 H6         -4.2089    0.8896    6.3258 H         1 <0>         0.0000
     15 H7          0.3668   -0.2606    2.2878 H         1 <0>         0.0000
     16 H8          1.2204    0.7692    3.4297 H         1 <0>         0.0000
     17 H9         -2.5623    2.2462    5.0401 H         1 <0>         0.0000
     18 H10        -3.4596    1.1579    3.9790 H         1 <0>         0.0000
     19 H11        -1.5727    1.3503    2.2875 H         1 <0>         0.0000
     20 H12        -0.6808    2.3949    3.3884 H         1 <0>         0.0000
     21 H13        -1.5683   -0.4693    4.0256 H         1 <0>         0.0000
     22 H14        -0.6695    0.5869    5.1167 H         1 <0>         0.0000
@<TRIPOS>BOND
     1    1    2 1
     2    1    4 1
     3    1    8 2
     4    3    5 1
     5    4    6 1
     6    5    7 1
     7    6    7 1
     8    2    9 1
     9    2   10 1
    10    2   11 1
    11    3   12 1
    12    3   13 1
    13    3   14 1
    14    4   15 1
    15    4   16 1
    16    5   17 1
    17    5   18 1
    18    6   19 1
    19    6   20 1
    20    7   21 1
    21    7   22 1
@<TRIPOS>MOLECULE
4-heptanone
   22    21     0     0     0
SMALL
NO_CHARGES

@<TRIPOS>ATOM
      1 C1          2.6506    2.6141    2.8467 C.2       1 <0>         0.0000
      2 C2          1.0139    0.3945    0.1167 C.3       1 <0>         0.0000
      3 C3          5.4839    4.5631    4.6448 C.3       1 <0>         0.0000
      4 C4          2.5198    1.7872    1.5770 C.3       1 <0>         0.0000
      5 C5          4.0251    3.2153    3.0973 C.3       1 <0>         0.0000
      6 C6          1.1267    1.1877    1.4083 C.3       1 <0>         0.0000
      7 C7          4.0924    4.0014    4.4033 C.3       1 <0>         0.0000
      8 O1          1.7088    2.7842    3.6191 O.2       1 <0>         0.0000
      9 H1          1.2388    1.0233   -0.7508 H         1 <0>         0.0000
     10 H2          1.7202   -0.4417    0.1222 H         1 <0>         0.0000
     11 H3          0.0055   -0.0134   -0.0062 H         1 <0>         0.0000
     12 H4          6.2307    3.7630    4.6716 H         1 <0>         0.0000
     13 H5          5.7575    5.2565    3.8432 H         1 <0>         0.0000
     14 H6          5.5279    5.1068    5.5940 H         1 <0>         0.0000
     15 H7          2.7509    2.4380    0.7263 H         1 <0>         0.0000
     16 H8          3.2675    0.9874    1.6180 H         1 <0>         0.0000
     17 H9          4.2633    3.8729    2.2539 H         1 <0>         0.0000
     18 H10         4.7521    2.3958    3.1172 H         1 <0>         0.0000
     19 H11         0.8963    0.5322    2.2565 H         1 <0>         0.0000
     20 H12         0.3739    1.9849    1.4103 H         1 <0>         0.0000
     21 H13         3.3687    4.8250    4.3819 H         1 <0>         0.0000
     22 H14         3.8122    3.3554    5.2438 H         1 <0>         0.0000
@<TRIPOS>BOND
     1    1    4 1
     2    1    5 1
     3    1    8 2
     4    2    6 1
     5    3    7 1
     6    4    6 1
     7    5    7 1
     8    2    9 1
     9    2   10 1
    10    2   11 1
    11    3   12 1
    12    3   13 1
    13    3   14 1
    14    4   15 1
    15    4   16 1
    16    5   17 1
    17    5   18 1
    18    6   19 1
    19    6   20 1
    20    7   21 1
    21    7   22 1
@<TRIPOS>MOLECULE
2-octanone
   25    24     0     0     0
SMALL
NO_CHARGES

@<TRIPOS>ATOM
      1 C1         -0.0533    0.1305   -3.3788 C.2       1 <0>         0.0000
      2 C2          1.3369   -0.0328   -3.9349 C.3       1 <0>         0.0000
      3 C3         -5.2555    4.0627    0.4848 C.3       1 <0>         0.0000
      4 C4         -0.3397    1.3740   -2.5612 C.3       1 <0>         0.0000
      5 C5         -3.8142    4.0259    0.0022 C.3       1 <0>         0.0000
      6 C6         -1.7622    1.4114   -2.0114 C.3       1 <0>         0.0000
      7 C7         -3.5023    2.7214   -0.7309 C.3       1 <0>         0.0000
      8 C8         -2.0608    2.7023   -1.2439 C.3       1 <0>         0.0000
      9 O1         -0.9289   -0.7080   -3.5935 O.2       1 <0>         0.0000
     10 H1          1.9583   -0.5703   -3.2129 H         1 <0>         0.0000
     11 H2          1.2997   -0.6019   -4.8661 H         1 <0>         0.0000
     12 H3          1.7834    0.9493   -4.1090 H         1 <0>         0.0000
     13 H4         -5.4668    3.2220    1.1532 H         1 <0>         0.0000
     14 H5         -5.9528    4.0158   -0.3576 H         1 <0>         0.0000
     15 H6         -5.4480    4.9897    1.0339 H         1 <0>         0.0000
     16 H7         -0.1602    2.2444   -3.2027 H         1 <0>         0.0000
     17 H8          0.3889    1.4292   -1.7441 H         1 <0>         0.0000
     18 H9         -3.6360    4.8787   -0.6630 H         1 <0>         0.0000
     19 H10        -3.1441    4.1395    0.8621 H         1 <0>         0.0000
     20 H11        -1.9417    0.5473   -1.3614 H         1 <0>         0.0000
     21 H12        -2.4606    1.3249   -2.8528 H         1 <0>         0.0000
     22 H13        -3.6628    1.8726   -0.0550 H         1 <0>         0.0000
     23 H14        -4.1941    2.5992   -1.5734 H         1 <0>         0.0000
     24 H15        -1.3735    2.8005   -0.3954 H         1 <0>         0.0000
     25 H16        -1.8928    3.5660   -1.8987 H         1 <0>         0.0000
@<TRIPOS>BOND
     1    1    2 1
     2    1    4 1
     3    1    9 2
     4    3    5 1
     5    4    6 1
     6    5    7 1
     7    6    8 1
     8    7    8 1
     9    2   10 1
    10    2   11 1
    11    2   12 1
    12    3   13 1
    13    3   14 1
    14    3   15 1
    15    4   16 1
    16    4   17 1
    17    5   18 1
    18    5   19 1
    19    6   20 1
    20    6   21 1
    21    7   22 1
    22    7   23 1
    23    8   24 1
    24    8   25 1
@<TRIPOS>MOLECULE
2-nonanone
   28    27     0     0     0
SMALL
NO_CHARGES

@<TRIPOS>ATOM
      1 C1         -0.4988   -3.7956   -2.0821 C.2       1 <0>         0.0000
      2 C2         -0.2693   -4.4774   -3.4053 C.3       1 <0>         0.0000
      3 C3          1.0314    3.4608    2.8169 C.3       1 <0>         0.0000
      4 C4          0.0735   -2.4039   -1.9021 C.3       1 <0>         0.0000
      5 C5          0.4702    2.0581    2.6464 C.3       1 <0>         0.0000
      6 C6         -0.1583   -1.8402   -0.5037 C.3       1 <0>         0.0000
      7 C7          0.7224    1.5214    1.2377 C.3       1 <0>         0.0000
      8 C8          0.4088   -0.4274   -0.3393 C.3       1 <0>         0.0000
      9 C9          0.1862    0.0975    1.0805 C.3       1 <0>         0.0000
     10 O1         -1.1166   -4.3538   -1.1752 O.2       1 <0>         0.0000
     11 H1          0.6620   -5.0496   -3.3648 H         1 <0>         0.0000
     12 H2         -0.1943   -3.7318   -4.1999 H         1 <0>         0.0000
     13 H3         -1.0899   -5.1691   -3.6118 H         1 <0>         0.0000
     14 H4          0.5897    4.1508    2.0909 H         1 <0>         0.0000
     15 H5          2.1176    3.4679    2.6814 H         1 <0>         0.0000
     16 H6          0.8117    3.8374    3.8207 H         1 <0>         0.0000
     17 H7         -0.3678   -1.7452   -2.6592 H         1 <0>         0.0000
     18 H8          1.1473   -2.4538   -2.1156 H         1 <0>         0.0000
     19 H9          0.9317    1.3938    3.3863 H         1 <0>         0.0000
     20 H10        -0.6066    2.0742    2.8517 H         1 <0>         0.0000
     21 H11         0.3236   -2.5067    0.2220 H         1 <0>         0.0000
     22 H12        -1.2286   -1.8363   -0.2677 H         1 <0>         0.0000
     23 H13         0.2416    2.1784    0.5027 H         1 <0>         0.0000
     24 H14         1.7988    1.5341    1.0270 H         1 <0>         0.0000
     25 H15        -0.0677    0.2524   -1.0553 H         1 <0>         0.0000
     26 H16         1.4824   -0.4341   -0.5637 H         1 <0>         0.0000
     27 H17         0.6850   -0.5640    1.7993 H         1 <0>         0.0000
     28 H18        -0.8852    0.0806    1.3145 H         1 <0>         0.0000
@<TRIPOS>BOND
     1    1    2 1
     2    1    4 1
     3    1   10 2
     4    3    5 1
     5    4    6 1
     6    5    7 1
     7    6    8 1
     8    7    9 1
     9    8    9 1
    10    2   11 1
    11    2   12 1
    12    2   13 1
    13    3   14 1
    14    3   15 1
    15    3   16 1
    16    4   17 1
    17    4   18 1
    18    5   19 1
    19    5   20 1
    20    6   21 1
    21    6   22 1
    22    7   23 1
    23    7   24 1
    24    8   25 1
    25    8   26 1
    26    9   27 1
    27    9   28 1
@<TRIPOS>MOLECULE
5-nonanone
   28    27     0     0     0
SMALL
NO_CHARGES

@<TRIPOS>ATOM
      1 C1         -0.2838   -0.4295   -0.2022 C.2       1 <0>         0.0000
      2 C2         -1.6717    1.5186    4.2514 C.3       1 <0>         0.0000
      3 C3          0.9875   -2.6623   -4.5808 C.3       1 <0>         0.0000
      4 C4         -1.1128    0.6191    0.5232 C.3       1 <0>         0.0000
      5 C5         -0.4335   -0.4496   -1.7168 C.3       1 <0>         0.0000
      6 C6         -1.8131    1.5993    2.7397 C.3       1 <0>         0.0000
      7 C7          0.1894   -1.5472   -3.9232 C.3       1 <0>         0.0000
      8 C8         -0.9391    0.5601    2.0391 C.3       1 <0>         0.0000
      9 C9          0.3584   -1.5623   -2.4019 C.3       1 <0>         0.0000
     10 O1          0.4362   -1.2260    0.3977 O.2       1 <0>         0.0000
     11 H1         -1.9454    0.5194    4.6049 H         1 <0>         0.0000
     12 H2         -2.3248    2.2447    4.7460 H         1 <0>         0.0000
     13 H3         -0.6403    1.7173    4.5601 H         1 <0>         0.0000
     14 H4          2.0497   -2.5630   -4.3365 H         1 <0>         0.0000
     15 H5          0.6492   -3.6437   -4.2336 H         1 <0>         0.0000
     16 H6          0.8852   -2.6284   -5.6701 H         1 <0>         0.0000
     17 H7         -0.8082    1.6041    0.1522 H         1 <0>         0.0000
     18 H8         -2.1643    0.4566    0.2610 H         1 <0>         0.0000
     19 H9         -0.1289    0.5254   -2.1127 H         1 <0>         0.0000
     20 H10        -1.5001   -0.5860   -1.9290 H         1 <0>         0.0000
     21 H11        -1.5349    2.6057    2.4059 H         1 <0>         0.0000
     22 H12        -2.8641    1.4463    2.4683 H         1 <0>         0.0000
     23 H13        -0.8697   -1.6651   -4.1803 H         1 <0>         0.0000
     24 H14         0.5161   -0.5860   -4.3350 H         1 <0>         0.0000
     25 H15         0.1139    0.7287    2.2967 H         1 <0>         0.0000
     26 H16        -1.1954   -0.4433    2.4015 H         1 <0>         0.0000
     27 H17         0.0045   -2.5265   -2.0167 H         1 <0>         0.0000
     28 H18         1.4216   -1.4875   -2.1437 H         1 <0>         0.0000
@<TRIPOS>BOND
     1    1    4 1
     2    1    5 1
     3    1   10 2
     4    2    6 1
     5    3    7 1
     6    4    8 1
     7    5    9 1
     8    6    8 1
     9    7    9 1
    10    2   11 1
    11    2   12 1
    12    2   13 1
    13    3   14 1
    14    3   15 1
    15    3   16 1
    16    4   17 1
    17    4   18 1
    18    5   19 1
    19    5   20 1
    20    6   21 1
    21    6   22 1
    22    7   23 1
    23    7   24 1
    24    8   25 1
    25    8   26 1
    26    9   27 1
    27    9   28 1
@<TRIPOS>MOLECULE
2-decanone
   31    30     0     0     0
SMALL
NO_CHARGES

@<TRIPOS>ATOM
      1 C1          0.6636   -1.1483    1.6814 C.2       1 <0>         0.0000
      2 C2          0.9959   -0.4530    0.3868 C.3       1 <0>         0.0000
      3 C3         -4.1309   -8.5706    6.5798 C.3       1 <0>         0.0000
      4 C4         -0.2780   -2.3353    1.5799 C.3       1 <0>         0.0000
      5 C5         -3.8502   -7.9281    5.2309 C.3       1 <0>         0.0000
      6 C6         -0.5314   -2.9989    2.9315 C.3       1 <0>         0.0000
      7 C7         -2.8781   -6.7557    5.3603 C.3       1 <0>         0.0000
      8 C8         -1.4511   -4.2125    2.7917 C.3       1 <0>         0.0000
      9 C9         -2.6247   -6.0911    4.0061 C.3       1 <0>         0.0000
     10 C10        -1.6781   -4.8972    4.1406 C.3       1 <0>         0.0000
     11 O1          1.1364   -0.7603    2.7486 O.2       1 <0>         0.0000
     12 H1          0.2714    0.3439    0.2022 H         1 <0>         0.0000
     13 H2          2.0059   -0.0401    0.4425 H         1 <0>         0.0000
     14 H3          0.9511   -1.1686   -0.4389 H         1 <0>         0.0000
     15 H4         -3.2061   -8.9273    7.0445 H         1 <0>         0.0000
     16 H5         -4.8025   -9.4263    6.4595 H         1 <0>         0.0000
     17 H6         -4.6062   -7.8589    7.2623 H         1 <0>         0.0000
     18 H7         -1.2234   -1.9793    1.1558 H         1 <0>         0.0000
     19 H8          0.1659   -3.0583    0.8865 H         1 <0>         0.0000
     20 H9         -4.7943   -7.5827    4.7937 H         1 <0>         0.0000
     21 H10        -3.4353   -8.6828    4.5526 H         1 <0>         0.0000
     22 H11        -0.9799   -2.2728    3.6209 H         1 <0>         0.0000
     23 H12         0.4231   -3.3078    3.3756 H         1 <0>         0.0000
     24 H13        -1.9284   -7.1103    5.7791 H         1 <0>         0.0000
     25 H14        -3.2847   -6.0170    6.0619 H         1 <0>         0.0000
     26 H15        -2.4146   -3.8968    2.3733 H         1 <0>         0.0000
     27 H16        -1.0109   -4.9278    2.0863 H         1 <0>         0.0000
     28 H17        -2.1954   -6.8239    3.3119 H         1 <0>         0.0000
     29 H18        -3.5773   -5.7580    3.5764 H         1 <0>         0.0000
     30 H19        -0.7171   -5.2344    4.5477 H         1 <0>         0.0000
     31 H20        -2.0959   -4.1756    4.8532 H         1 <0>         0.0000
@<TRIPOS>BOND
     1    1    2 1
     2    1    4 1
     3    1   11 2
     4    3    5 1
     5    4    6 1
     6    5    7 1
     7    6    8 1
     8    7    9 1
     9    8   10 1
    10    9   10 1
    11    2   12 1
    12    2   13 1
    13    2   14 1
    14    3   15 1
    15    3   16 1
    16    3   17 1
    17    4   18 1
    18    4   19 1
    19    5   20 1
    20    5   21 1
    21    6   22 1
    22    6   23 1
    23    7   24 1
    24    7   25 1
    25    8   26 1
    26    8   27 1
    27    9   28 1
    28    9   29 1
    29   10   30 1
    30   10   31 1
@<TRIPOS>MOLECULE
2-undecanone
   34    33     0     0     0
SMALL
NO_CHARGES

@<TRIPOS>ATOM
      1 C1          4.5557    0.6195    1.1644 C.2       1 <0>         0.0000
      2 C2          5.6258   -0.3742    1.5359 C.3       1 <0>         0.0000
      3 C3         -6.7357    2.6944    1.1959 C.3       1 <0>         0.0000
      4 C4          3.1207    0.1701    1.3850 C.3       1 <0>         0.0000
      5 C5         -5.3174    3.1320    0.8666 C.3       1 <0>         0.0000
      6 C6          2.0790    1.2122    0.9808 C.3       1 <0>         0.0000
      7 C7         -4.3037    2.0321    1.1849 C.3       1 <0>         0.0000
      8 C8          0.6446    0.7235    1.2097 C.3       1 <0>         0.0000
      9 C9         -2.8834    2.4647    0.8163 C.3       1 <0>         0.0000
     10 C10        -0.3728    1.8021    0.8316 C.3       1 <0>         0.0000
     11 C11        -1.8227    1.4026    1.1222 C.3       1 <0>         0.0000
     12 O1          4.8490    1.7336    0.7338 O.2       1 <0>         0.0000
     13 H1          5.8598   -1.0008    0.6717 H         1 <0>         0.0000
     14 H2          5.2707   -1.0123    2.3500 H         1 <0>         0.0000
     15 H3          6.5196    0.1586    1.8699 H         1 <0>         0.0000
     16 H4         -7.0066    1.7915    0.6391 H         1 <0>         0.0000
     17 H5         -6.8435    2.4843    2.2649 H         1 <0>         0.0000
     18 H6         -7.4468    3.4832    0.9312 H         1 <0>         0.0000
     19 H7          3.0154   -0.0453    2.4544 H         1 <0>         0.0000
     20 H8          2.9553   -0.7607    0.8316 H         1 <0>         0.0000
     21 H9         -5.0778    4.0360    1.4388 H         1 <0>         0.0000
     22 H10        -5.2604    3.3955   -0.1960 H         1 <0>         0.0000
     23 H11         2.2438    2.1168    1.5790 H         1 <0>         0.0000
     24 H12         2.2131    1.4960   -0.0699 H         1 <0>         0.0000
     25 H13        -4.3589    1.7942    2.2532 H         1 <0>         0.0000
     26 H14        -4.5651    1.1206    0.6340 H         1 <0>         0.0000
     27 H15         0.4659   -0.1793    0.6169 H         1 <0>         0.0000
     28 H16         0.5148    0.4505    2.2638 H         1 <0>         0.0000
     29 H17        -2.8427    2.6830   -0.2586 H         1 <0>         0.0000
     30 H18        -2.6353    3.4019    1.3274 H         1 <0>         0.0000
     31 H19        -0.2607    2.0646   -0.2266 H         1 <0>         0.0000
     32 H20        -0.1539    2.7160    1.3984 H         1 <0>         0.0000
     33 H21        -2.0628    0.4992    0.5476 H         1 <0>         0.0000
     34 H22        -1.8979    1.1221    2.1803 H         1 <0>         0.0000
@<TRIPOS>BOND
     1    1    2 1
     2    1    4 1
     3    1   12 2
     4    3    5 1
     5    4    6 1
     6    5    7 1
     7    6    8 1
     8    7    9 1
     9    8   10 1
    10    9   11 1
    11   10   11 1
    12    2   13 1
    13    2   14 1
    14    2   15 1
    15    3   16 1
    16    3   17 1
    17    3   18 1
    18    4   19 1
    19    4   20 1
    20    5   21 1
    21    5   22 1
    22    6   23 1
    23    6   24 1
    24    7   25 1
    25    7   26 1
    26    8   27 1
    27    8   28 1
    28    9   29 1
    29    9   30 1
    30   10   31 1
    31   10   32 1
    32   11   33 1
    33   11   34 1
@<TRIPOS>MOLECULE
cyclopentanone
   14    14     0     0     0
SMALL
NO_CHARGES

@<TRIPOS>ATOM
      1 C1         -0.7497    0.1232   -0.3013 C.2       1 <0>         0.0000
      2 C2          0.3277    1.1760   -0.2732 C.3       1 <0>         0.0000
      3 C3         -0.2859   -1.1830    0.2893 C.3       1 <0>         0.0000
      4 C4          1.5583    0.3514    0.0824 C.3       1 <0>         0.0000
      5 C5          1.0223   -0.7754    0.9550 C.3       1 <0>         0.0000
      6 O1         -1.8728    0.3078   -0.7522 O.2       1 <0>         0.0000
      7 H1          0.4326    1.6652   -1.2438 H         1 <0>         0.0000
      8 H2          0.0940    1.9036    0.5091 H         1 <0>         0.0000
      9 H3         -1.0061   -1.5725    1.0117 H         1 <0>         0.0000
     10 H4         -0.1172   -1.8996   -0.5195 H         1 <0>         0.0000
     11 H5          2.0086   -0.0642   -0.8272 H         1 <0>         0.0000
     12 H6          2.3196    0.9479    0.5934 H         1 <0>         0.0000
     13 H7          0.8287   -0.4017    1.9683 H         1 <0>         0.0000
     14 H8          1.7230   -1.6120    1.0320 H         1 <0>         0.0000
@<TRIPOS>BOND
     1    1    2 1
     2    1    3 1
     3    1    6 2
     4    2    4 1
     5    3    5 1
     6    4    5 1
     7    2    7 1
     8    2    8 1
     9    3    9 1
    10    3   10 1
    11    4   11 1
    12    4   12 1
    13    5   13 1
    14    5   14 1
@<TRIPOS>MOLECULE
cyclohexanone
   17    17     0     0     0
SMALL
NO_CHARGES

@<TRIPOS>ATOM
      1 C1         -0.6339   -0.1479    0.8463 C.2       1 <0>         0.0000
      2 C2         -0.1457    1.2507    0.5414 C.3       1 <0>         0.0000
      3 C3         -0.7630   -1.0895   -0.3301 C.3       1 <0>         0.0000
      4 C4          1.1135    1.2057   -0.3132 C.3       1 <0>         0.0000
      5 C5          0.5101   -1.0835   -1.1650 C.3       1 <0>         0.0000
      6 C6          0.9260    0.3338   -1.5529 C.3       1 <0>         0.0000
      7 O1         -1.0070   -0.4694    1.9735 O.2       1 <0>         0.0000
      8 H1         -0.9500    1.7853    0.0243 H         1 <0>         0.0000
      9 H2          0.0616    1.7718    1.4817 H         1 <0>         0.0000
     10 H3         -0.9604   -2.1011    0.0393 H         1 <0>         0.0000
     11 H4         -1.6236   -0.7697   -0.9277 H         1 <0>         0.0000
     12 H5          1.3906    2.2222   -0.6141 H         1 <0>         0.0000
     13 H6          1.9454    0.8088    0.2822 H         1 <0>         0.0000
     14 H7          1.3226   -1.5529   -0.5961 H         1 <0>         0.0000
     15 H8          0.3609   -1.6856   -2.0681 H         1 <0>         0.0000
     16 H9          0.1661    0.7776   -2.2073 H         1 <0>         0.0000
     17 H10         1.8619    0.2989   -2.1219 H         1 <0>         0.0000
@<TRIPOS>BOND
     1    1    2 1
     2    1    3 1
     3    1    7 2
     4    2    4 1
     5    3    5 1
     6    4    6 1
     7    5    6 1
     8    2    8 1
     9    2    9 1
    10    3   10 1
    11    3   11 1
    12    4   12 1
    13    4   13 1
    14    5   14 1
    15    5   15 1
    16    6   16 1
    17    6   17 1
@<TRIPOS>MOLECULE
methylformate
    8     7     0     0     0
SMALL
NO_CHARGES

@<TRIPOS>ATOM
      1 C1          1.5117   -0.9362   -1.9766 C.2       1 <0>         0.0000
      2 C2          0.3499   -1.0344    0.0714 C.3       1 <0>         0.0000
      3 O1          0.5335   -0.5918   -2.6212 O.2       1 <0>         0.0000
      4 O2          1.5789   -1.1921   -0.6447 O.3       1 <0>         0.0000
      5 H1          2.5112   -1.0903   -2.4120 H         1 <0>         0.0000
      6 H2          0.5111   -1.2625    1.1278 H         1 <0>         0.0000
      7 H3         -0.4048   -1.7055   -0.3463 H         1 <0>         0.0000
      8 H4          0.0106   -0.0006   -0.0282 H         1 <0>         0.0000
@<TRIPOS>BOND
     1    1    3 2
     2    1    4 1
     3    2    4 1
     4    1    5 1
     5    2    6 1
     6    2    7 1
     7    2    8 1
@<TRIPOS>MOLECULE
ethylformate
   11    10     0     0     0
SMALL
NO_CHARGES

@<TRIPOS>ATOM
      1 C1          2.1979    2.3853   -2.2392 C.2       1 <0>         0.0000
      2 C2          1.0616   -0.2681   -0.0006 C.3       1 <0>         0.0000
      3 C3          1.9101    0.9126   -0.4220 C.3       1 <0>         0.0000
      4 O1          3.1000    3.0130   -1.7072 O.2       1 <0>         0.0000
      5 O2          1.5170    1.3236   -1.7228 O.3       1 <0>         0.0000
      6 H1          1.8053    2.6060   -3.2438 H         1 <0>         0.0000
      7 H2          0.0022    0.0017    0.0240 H         1 <0>         0.0000
      8 H3          1.1969   -1.1069   -0.6913 H         1 <0>         0.0000
      9 H4          1.3591   -0.6222    0.9921 H         1 <0>         0.0000
     10 H5          2.9684    0.6361   -0.4446 H         1 <0>         0.0000
     11 H6          1.7730    1.7499    0.2687 H         1 <0>         0.0000
@<TRIPOS>BOND
     1    1    4 2
     2    1    5 1
     3    2    3 1
     4    3    5 1
     5    1    6 1
     6    2    7 1
     7    2    8 1
     8    2    9 1
     9    3   10 1
    10    3   11 1
@<TRIPOS>MOLECULE
n-propylformate
   14    13     0     0     0
SMALL
NO_CHARGES

@<TRIPOS>ATOM
      1 C1          2.6256   -1.8218    4.7997 C.2       1 <0>         0.0000
      2 C2         -0.0035   -0.6640    0.8700 C.3       1 <0>         0.0000
      3 C3          1.2444   -0.4434    1.7060 C.3       1 <0>         0.0000
      4 C4          1.2749   -1.3494    2.9273 C.3       1 <0>         0.0000
      5 O1          1.8774   -2.6811    5.2388 O.2       1 <0>         0.0000
      6 O2          2.4570   -1.0814    3.6686 O.3       1 <0>         0.0000
      7 H1          3.5699   -1.5249    5.2816 H         1 <0>         0.0000
      8 H2         -0.0766   -1.7059    0.5423 H         1 <0>         0.0000
      9 H3         -0.8985   -0.4284    1.4543 H         1 <0>         0.0000
     10 H4          0.0009   -0.0237   -0.0177 H         1 <0>         0.0000
     11 H5          1.2990    0.6047    2.0239 H         1 <0>         0.0000
     12 H6          2.1379   -0.6194    1.0950 H         1 <0>         0.0000
     13 H7          0.4098   -1.1652    3.5724 H         1 <0>         0.0000
     14 H8          1.2804   -2.4035    2.6318 H         1 <0>         0.0000
@<TRIPOS>BOND
     1    1    5 2
     2    1    6 1
     3    2    3 1
     4    3    4 1
     5    4    6 1
     6    1    7 1
     7    2    8 1
     8    2    9 1
     9    2   10 1
    10    3   11 1
    11    3   12 1
    12    4   13 1
    13    4   14 1
@<TRIPOS>MOLECULE
isopropylformate
   14    13     0     0     0
SMALL
NO_CHARGES

@<TRIPOS>ATOM
      1 C1          0.3773    2.8688    2.3074 C.2       1 <0>         0.0000
      2 C2          1.0765    0.0499    0.1958 C.3       1 <0>         0.0000
      3 C3          2.8427    1.0382    1.6976 C.3       1 <0>         0.0000
      4 C4          1.3532    0.9191    1.4130 C.3       1 <0>         0.0000
      5 O1          0.4005    2.4637    3.4590 O.2       1 <0>         0.0000
      6 O2          0.8123    2.2184    1.1940 O.3       1 <0>         0.0000
      7 H1         -0.0146    3.8539    2.0105 H         1 <0>         0.0000
      8 H2          1.5701    0.4471   -0.6963 H         1 <0>         0.0000
      9 H3          1.4331   -0.9713    0.3679 H         1 <0>         0.0000
     10 H4          0.0011   -0.0220   -0.0013 H         1 <0>         0.0000
     11 H5          3.3785    1.4589    0.8413 H         1 <0>         0.0000
     12 H6          3.2667    0.0547    1.9270 H         1 <0>         0.0000
     13 H7          3.0274    1.6718    2.5721 H         1 <0>         0.0000
     14 H8          0.8468    0.4961    2.2868 H         1 <0>         0.0000
@<TRIPOS>BOND
     1    1    5 2
     2    1    6 1
     3    2    4 1
     4    3    4 1
     5    4    6 1
     6    1    7 1
     7    2    8 1
     8    2    9 1
     9    2   10 1
    10    3   11 1
    11    3   12 1
    12    3   13 1
    13    4   14 1
@<TRIPOS>MOLECULE
isobutylformate
   17    16     0     0     0
SMALL
NO_CHARGES

@<TRIPOS>ATOM
      1 C1          2.8988    2.5317    2.0856 C.2       1 <0>         0.0000
      2 C2          0.9983   -0.3578   -0.2742 C.3       1 <0>         0.0000
      3 C3          1.1578    1.1798   -2.2511 C.3       1 <0>         0.0000
      4 C4          1.9991    1.9493   -0.0132 C.3       1 <0>         0.0000
      5 C5          1.8182    0.7470   -0.9439 C.3       1 <0>         0.0000
      6 O1          2.5838    3.7082    1.9978 O.2       1 <0>         0.0000
      7 O2          2.6754    1.5475    1.1709 O.3       1 <0>         0.0000
      8 H1          3.4243    2.0994    2.9511 H         1 <0>         0.0000
      9 H2         -0.0051    0.0026   -0.0230 H         1 <0>         0.0000
     10 H3          1.4754   -0.7007    0.6503 H         1 <0>         0.0000
     11 H4          0.8826   -1.2218   -0.9368 H         1 <0>         0.0000
     12 H5          0.1652    1.6031   -2.0643 H         1 <0>         0.0000
     13 H6          1.0346    0.3259   -2.9257 H         1 <0>         0.0000
     14 H7          1.7569    1.9371   -2.7683 H         1 <0>         0.0000
     15 H8          2.6000    2.7249   -0.4995 H         1 <0>         0.0000
     16 H9          1.0323    2.3812    0.2672 H         1 <0>         0.0000
     17 H10         2.8075    0.3294   -1.1709 H         1 <0>         0.0000
@<TRIPOS>BOND
     1    1    6 2
     2    1    7 1
     3    2    5 1
     4    3    5 1
     5    4    5 1
     6    4    7 1
     7    1    8 1
     8    2    9 1
     9    2   10 1
    10    2   11 1
    11    3   12 1
    12    3   13 1
    13    3   14 1
    14    4   15 1
    15    4   16 1
    16    5   17 1
@<TRIPOS>MOLECULE
isoamylformate
   20    19     0     0     0
SMALL
NO_CHARGES

@<TRIPOS>ATOM
      1 C1         -1.3181   -2.1660   -5.8535 C.2       1 <0>         0.0000
      2 C2         -0.2765   -3.2843   -0.8538 C.3       1 <0>         0.0000
      3 C3          0.0168   -0.9791    0.0745 C.3       1 <0>         0.0000
      4 C4         -0.3808   -1.3238   -2.4187 C.3       1 <0>         0.0000
      5 C5         -1.1136   -2.0995   -3.5067 C.3       1 <0>         0.0000
      6 C6         -0.6860   -1.8165   -0.9949 C.3       1 <0>         0.0000
      7 O1         -2.1123   -3.0935   -5.8506 O.2       1 <0>         0.0000
      8 O2         -0.7406   -1.5710   -4.7733 O.3       1 <0>         0.0000
      9 H1         -0.9535   -1.6723   -6.7675 H         1 <0>         0.0000
     10 H2          0.8000   -3.4056   -1.0148 H         1 <0>         0.0000
     11 H3         -0.8009   -3.9152   -1.5797 H         1 <0>         0.0000
     12 H4         -0.5068   -3.6582    0.1495 H         1 <0>         0.0000
     13 H5          1.1046   -1.0088   -0.0494 H         1 <0>         0.0000
     14 H6         -0.2191   -1.3525    1.0769 H         1 <0>         0.0000
     15 H7         -0.3029    0.0666    0.0356 H         1 <0>         0.0000
     16 H8          0.6985   -1.3957   -2.6079 H         1 <0>         0.0000
     17 H9         -0.6213   -0.2567   -2.5134 H         1 <0>         0.0000
     18 H10        -0.8430   -3.1597   -3.4801 H         1 <0>         0.0000
     19 H11        -2.1983   -2.0026   -3.4059 H         1 <0>         0.0000
     20 H12        -1.7682   -1.7520   -0.8249 H         1 <0>         0.0000
@<TRIPOS>BOND
     1    1    7 2
     2    1    8 1
     3    2    6 1
     4    3    6 1
     5    4    5 1
     6    4    6 1
     7    5    8 1
     8    1    9 1
     9    2   10 1
    10    2   11 1
    11    2   12 1
    12    3   13 1
    13    3   14 1
    14    3   15 1
    15    4   16 1
    16    4   17 1
    17    5   18 1
    18    5   19 1
    19    6   20 1
@<TRIPOS>MOLECULE
methylacetate
   11    10     0     0     0
SMALL
NO_CHARGES

@<TRIPOS>ATOM
      1 C1         -1.6376   -0.5840   -1.2367 C.2       1 <0>         0.0000
      2 C2         -0.9373   -0.5552    0.0879 C.3       1 <0>         0.0000
      3 C3         -2.5912    0.8103   -2.8891 C.3       1 <0>         0.0000
      4 O1         -1.9037   -1.6095   -1.8489 O.2       1 <0>         0.0000
      5 O2         -1.9187    0.6904   -1.6316 O.3       1 <0>         0.0000
      6 H1          0.1431   -0.4965   -0.0649 H         1 <0>         0.0000
      7 H2         -1.1972   -1.4466    0.6644 H         1 <0>         0.0000
      8 H3         -1.2585    0.3273    0.6488 H         1 <0>         0.0000
      9 H4         -2.7677    1.8659   -3.1096 H         1 <0>         0.0000
     10 H5         -3.5415    0.2719   -2.8480 H         1 <0>         0.0000
     11 H6         -1.9629    0.3771   -3.6710 H         1 <0>         0.0000
@<TRIPOS>BOND
     1    1    2 1
     2    1    4 2
     3    1    5 1
     4    3    5 1
     5    2    6 1
     6    2    7 1
     7    2    8 1
     8    3    9 1
     9    3   10 1
    10    3   11 1
@<TRIPOS>MOLECULE
ethylacetate
   14    13     0     0     0
SMALL
NO_CHARGES

@<TRIPOS>ATOM
      1 C1         -2.4436   -0.2296   -0.7731 C.2       1 <0>         0.0000
      2 C2         -1.6440   -0.2458    0.4943 C.3       1 <0>         0.0000
      3 C3         -1.8914    1.8641   -3.7227 C.3       1 <0>         0.0000
      4 C4         -2.5898    0.8104   -2.8899 C.3       1 <0>         0.0000
      5 O1         -3.4150   -0.9444   -0.9795 O.2       1 <0>         0.0000
      6 O2         -1.9187    0.6904   -1.6316 O.3       1 <0>         0.0000
      7 H1         -0.8309   -0.9710    0.4106 H         1 <0>         0.0000
      8 H2         -2.2928   -0.4899    1.3392 H         1 <0>         0.0000
      9 H3         -1.2116    0.7448    0.6630 H         1 <0>         0.0000
     10 H4         -1.9137    2.8357   -3.2213 H         1 <0>         0.0000
     11 H5         -0.8487    1.5839   -3.9045 H         1 <0>         0.0000
     12 H6         -2.3704    1.9613   -4.7027 H         1 <0>         0.0000
     13 H7         -2.5639   -0.1588   -3.3969 H         1 <0>         0.0000
     14 H8         -3.6313    1.0923   -2.7085 H         1 <0>         0.0000
@<TRIPOS>BOND
     1    1    2 1
     2    1    5 2
     3    1    6 1
     4    3    4 1
     5    4    6 1
     6    2    7 1
     7    2    8 1
     8    2    9 1
     9    3   10 1
    10    3   11 1
    11    3   12 1
    12    4   13 1
    13    4   14 1
@<TRIPOS>MOLECULE
n-propylacetate
   17    16     0     0     0
SMALL
NO_CHARGES

@<TRIPOS>ATOM
      1 C1          2.6357   -1.8329    4.7977 C.2       1 <0>         0.0000
      2 C2          3.9233   -1.4542    5.4646 C.3       1 <0>         0.0000
      3 C3         -0.0095   -0.6551    0.8768 C.3       1 <0>         0.0000
      4 C4          1.2444   -0.4434    1.7060 C.3       1 <0>         0.0000
      5 C5          1.2749   -1.3494    2.9273 C.3       1 <0>         0.0000
      6 O1          1.8678   -2.6847    5.2241 O.2       1 <0>         0.0000
      7 O2          2.4629   -1.0899    3.6622 O.3       1 <0>         0.0000
      8 H1          4.7356   -2.0785    5.0843 H         1 <0>         0.0000
      9 H2          3.8266   -1.5649    6.5476 H         1 <0>         0.0000
     10 H3          4.1535   -0.4084    5.2413 H         1 <0>         0.0000
     11 H4         -0.0920   -1.6965    0.5497 H         1 <0>         0.0000
     12 H5         -0.8996   -0.4128    1.4659 H         1 <0>         0.0000
     13 H6         -0.0053   -0.0150   -0.0111 H         1 <0>         0.0000
     14 H7          1.3083    0.6043    2.0234 H         1 <0>         0.0000
     15 H8          2.1333   -0.6260    1.0902 H         1 <0>         0.0000
     16 H9          0.4147   -1.1588    3.5770 H         1 <0>         0.0000
     17 H10         1.2712   -2.4035    2.6320 H         1 <0>         0.0000
@<TRIPOS>BOND
     1    1    2 1
     2    1    6 2
     3    1    7 1
     4    3    4 1
     5    4    5 1
     6    5    7 1
     7    2    8 1
     8    2    9 1
     9    2   10 1
    10    3   11 1
    11    3   12 1
    12    3   13 1
    13    4   14 1
    14    4   15 1
    15    5   16 1
    16    5   17 1
@<TRIPOS>MOLECULE
isopropylacetate
   17    16     0     0     0
SMALL
NO_CHARGES

@<TRIPOS>ATOM
      1 C1          0.3746    2.8740    2.3101 C.2       1 <0>         0.0000
      2 C2         -0.1643    4.2196    1.9295 C.3       1 <0>         0.0000
      3 C3          1.0765    0.0499    0.1958 C.3       1 <0>         0.0000
      4 C4          2.8427    1.0382    1.6976 C.3       1 <0>         0.0000
      5 C5          1.3532    0.9191    1.4130 C.3       1 <0>         0.0000
      6 O1          0.4075    2.4483    3.4568 O.2       1 <0>         0.0000
      7 O2          0.8123    2.2184    1.1940 O.3       1 <0>         0.0000
      8 H1          0.6367    4.9623    1.9606 H         1 <0>         0.0000
      9 H2         -0.9757    4.4991    2.6062 H         1 <0>         0.0000
     10 H3         -0.5606    4.1766    0.9108 H         1 <0>         0.0000
     11 H4          1.5701    0.4471   -0.6963 H         1 <0>         0.0000
     12 H5          1.4331   -0.9713    0.3679 H         1 <0>         0.0000
     13 H6          0.0011   -0.0220   -0.0013 H         1 <0>         0.0000
     14 H7          3.3785    1.4589    0.8413 H         1 <0>         0.0000
     15 H8          3.2667    0.0547    1.9270 H         1 <0>         0.0000
     16 H9          3.0274    1.6718    2.5721 H         1 <0>         0.0000
     17 H10         0.8468    0.4961    2.2868 H         1 <0>         0.0000
@<TRIPOS>BOND
     1    1    2 1
     2    1    6 2
     3    1    7 1
     4    3    5 1
     5    4    5 1
     6    5    7 1
     7    2    8 1
     8    2    9 1
     9    2   10 1
    10    3   11 1
    11    3   12 1
    12    3   13 1
    13    4   14 1
    14    4   15 1
    15    4   16 1
    16    5   17 1
@<TRIPOS>MOLECULE
n-butylacetate
   20    19     0     0     0
SMALL
NO_CHARGES

@<TRIPOS>ATOM
      1 C1         -5.1171   -3.7748    0.1296 C.2       1 <0>         0.0000
      2 C2         -6.3469   -3.5924   -0.7073 C.3       1 <0>         0.0000
      3 C3          0.4039   -1.0521   -0.1122 C.3       1 <0>         0.0000
      4 C4         -0.5795   -2.0238    0.5201 C.3       1 <0>         0.0000
      5 C5         -1.9307   -1.9925   -0.1885 C.3       1 <0>         0.0000
      6 C6         -2.9047   -2.9950    0.4140 C.3       1 <0>         0.0000
      7 O1         -5.0296   -4.5713    1.0543 O.2       1 <0>         0.0000
      8 O2         -4.1328   -2.9264   -0.2974 O.3       1 <0>         0.0000
      9 H1         -6.9882   -2.8275   -0.2625 H         1 <0>         0.0000
     10 H2         -6.8816   -4.5418   -0.7928 H         1 <0>         0.0000
     11 H3         -6.0577   -3.2648   -1.7102 H         1 <0>         0.0000
     12 H4          0.0153   -0.0289   -0.0876 H         1 <0>         0.0000
     13 H5          1.3640   -1.0679    0.4135 H         1 <0>         0.0000
     14 H6          0.5844   -1.3218   -1.1574 H         1 <0>         0.0000
     15 H7         -0.1611   -3.0362    0.4794 H         1 <0>         0.0000
     16 H8         -0.7076   -1.7680    1.5784 H         1 <0>         0.0000
     17 H9         -2.3650   -0.9865   -0.1342 H         1 <0>         0.0000
     18 H10        -1.8040   -2.2065   -1.2572 H         1 <0>         0.0000
     19 H11        -2.5139   -4.0145    0.3363 H         1 <0>         0.0000
     20 H12        -3.0991   -2.7668    1.4668 H         1 <0>         0.0000
@<TRIPOS>BOND
     1    1    2 1
     2    1    7 2
     3    1    8 1
     4    3    4 1
     5    4    5 1
     6    5    6 1
     7    6    8 1
     8    2    9 1
     9    2   10 1
    10    2   11 1
    11    3   12 1
    12    3   13 1
    13    3   14 1
    14    4   15 1
    15    4   16 1
    16    5   17 1
    17    5   18 1
    18    6   19 1
    19    6   20 1
@<TRIPOS>MOLECULE
isobutylacetate
   20    19     0     0     0
SMALL
NO_CHARGES

@<TRIPOS>ATOM
      1 C1          2.9553    2.5470    2.0634 C.2       1 <0>         0.0000
      2 C2          3.7244    1.9940    3.2248 C.3       1 <0>         0.0000
      3 C3          1.0495   -0.3816   -0.2534 C.3       1 <0>         0.0000
      4 C4          1.1039    1.1686   -2.2261 C.3       1 <0>         0.0000
      5 C5          1.9991    1.9493   -0.0132 C.3       1 <0>         0.0000
      6 C6          1.8182    0.7470   -0.9439 C.3       1 <0>         0.0000
      7 O1          2.5971    3.7134    1.9718 O.2       1 <0>         0.0000
      8 O2          2.7244    1.5597    1.1457 O.3       1 <0>         0.0000
      9 H1          3.0325    1.6234    3.9851 H         1 <0>         0.0000
     10 H2          4.3757    2.7671    3.6402 H         1 <0>         0.0000
     11 H3          4.3467    1.1614    2.8841 H         1 <0>         0.0000
     12 H4          0.0462   -0.0483    0.0327 H         1 <0>         0.0000
     13 H5          1.5657   -0.7163    0.6529 H         1 <0>         0.0000
     14 H6          0.9340   -1.2452   -0.9165 H         1 <0>         0.0000
     15 H7          0.1076    1.5654   -2.0043 H         1 <0>         0.0000
     16 H8          0.9803    0.3150   -2.9009 H         1 <0>         0.0000
     17 H9          1.6660    1.9434   -2.7588 H         1 <0>         0.0000
     18 H10         2.5635    2.7424   -0.5149 H         1 <0>         0.0000
     19 H11         1.0314    2.3549    0.3013 H         1 <0>         0.0000
     20 H12         2.8097    0.3560   -1.2057 H         1 <0>         0.0000
@<TRIPOS>BOND
     1    1    2 1
     2    1    7 2
     3    1    8 1
     4    3    6 1
     5    4    6 1
     6    5    6 1
     7    5    8 1
     8    2    9 1
     9    2   10 1
    10    2   11 1
    11    3   12 1
    12    3   13 1
    13    3   14 1
    14    4   15 1
    15    4   16 1
    16    4   17 1
    17    5   18 1
    18    5   19 1
    19    6   20 1
@<TRIPOS>MOLECULE
n-pentylacetate
   23    22     0     0     0
SMALL
NO_CHARGES

@<TRIPOS>ATOM
      1 C1          5.2396   -2.0410   -5.0250 C.2       1 <0>         0.0000
      2 C2          5.9981   -3.2190   -5.5571 C.3       1 <0>         0.0000
      3 C3          0.8518   -0.3688    0.6905 C.3       1 <0>         0.0000
      4 C4          1.6513   -1.4310   -0.0471 C.3       1 <0>         0.0000
      5 C5          2.2938   -0.8687   -1.3148 C.3       1 <0>         0.0000
      6 C6          3.1237   -1.9294   -2.0346 C.3       1 <0>         0.0000
      7 C7          3.8013   -1.3663   -3.2758 C.3       1 <0>         0.0000
      8 O1          5.2382   -0.9344   -5.5470 O.2       1 <0>         0.0000
      9 O2          4.5660   -2.3952   -3.8884 O.3       1 <0>         0.0000
     10 H1          7.0002   -3.2421   -5.1220 H         1 <0>         0.0000
     11 H2          6.0523   -3.1635   -6.6473 H         1 <0>         0.0000
     12 H3          5.4770   -4.1404   -5.2814 H         1 <0>         0.0000
     13 H4          1.4856    0.4815    0.9618 H         1 <0>         0.0000
     14 H5          0.0267    0.0005    0.0732 H         1 <0>         0.0000
     15 H6          0.4284   -0.7838    1.6105 H         1 <0>         0.0000
     16 H7          0.9892   -2.2661   -0.3036 H         1 <0>         0.0000
     17 H8          2.4270   -1.8247    0.6201 H         1 <0>         0.0000
     18 H9          1.5129   -0.4939   -1.9877 H         1 <0>         0.0000
     19 H10         2.9330   -0.0158   -1.0553 H         1 <0>         0.0000
     20 H11         2.4898   -2.7778   -2.3208 H         1 <0>         0.0000
     21 H12         3.8852   -2.3389   -1.3593 H         1 <0>         0.0000
     22 H13         4.4727   -0.5420   -3.0147 H         1 <0>         0.0000
     23 H14         3.0598   -1.0074   -3.9966 H         1 <0>         0.0000
@<TRIPOS>BOND
     1    1    2 1
     2    1    8 2
     3    1    9 1
     4    3    4 1
     5    4    5 1
     6    5    6 1
     7    6    7 1
     8    7    9 1
     9    2   10 1
    10    2   11 1
    11    2   12 1
    12    3   13 1
    13    3   14 1
    14    3   15 1
    15    4   16 1
    16    4   17 1
    17    5   18 1
    18    5   19 1
    19    6   20 1
    20    6   21 1
    21    7   22 1
    22    7   23 1
@<TRIPOS>MOLECULE
isoamylacetate
   23    22     0     0     0
SMALL
NO_CHARGES

@<TRIPOS>ATOM
      1 C1         -1.3189   -2.1664   -5.8599 C.2       1 <0>         0.0000
      2 C2         -0.8362   -1.5097   -7.1176 C.3       1 <0>         0.0000
      3 C3         -0.2765   -3.2843   -0.8538 C.3       1 <0>         0.0000
      4 C4          0.0168   -0.9791    0.0745 C.3       1 <0>         0.0000
      5 C5         -0.3808   -1.3238   -2.4187 C.3       1 <0>         0.0000
      6 C6         -1.1136   -2.0995   -3.5067 C.3       1 <0>         0.0000
      7 C7         -0.6860   -1.8165   -0.9949 C.3       1 <0>         0.0000
      8 O1         -2.1137   -3.0964   -5.8339 O.2       1 <0>         0.0000
      9 O2         -0.7406   -1.5710   -4.7733 O.3       1 <0>         0.0000
     10 H1         -1.4966   -0.6793   -7.3793 H         1 <0>         0.0000
     11 H2         -0.7985   -2.2424   -7.9277 H         1 <0>         0.0000
     12 H3          0.1718   -1.1164   -6.9574 H         1 <0>         0.0000
     13 H4          0.8000   -3.4056   -1.0148 H         1 <0>         0.0000
     14 H5         -0.8009   -3.9152   -1.5797 H         1 <0>         0.0000
     15 H6         -0.5068   -3.6582    0.1495 H         1 <0>         0.0000
     16 H7          1.1046   -1.0088   -0.0494 H         1 <0>         0.0000
     17 H8         -0.2191   -1.3525    1.0769 H         1 <0>         0.0000
     18 H9         -0.3029    0.0666    0.0356 H         1 <0>         0.0000
     19 H10         0.6985   -1.3957   -2.6079 H         1 <0>         0.0000
     20 H11        -0.6213   -0.2567   -2.5134 H         1 <0>         0.0000
     21 H12        -0.8430   -3.1597   -3.4801 H         1 <0>         0.0000
     22 H13        -2.1983   -2.0026   -3.4059 H         1 <0>         0.0000
     23 H14        -1.7682   -1.7520   -0.8249 H         1 <0>         0.0000
@<TRIPOS>BOND
     1    1    2 1
     2    1    8 2
     3    1    9 1
     4    3    7 1
     5    4    7 1
     6    5    6 1
     7    5    7 1
     8    6    9 1
     9    2   10 1
    10    2   11 1
    11    2   12 1
    12    3   13 1
    13    3   14 1
    14    3   15 1
    15    4   16 1
    16    4   17 1
    17    4   18 1
    18    5   19 1
    19    5   20 1
    20    6   21 1
    21    6   22 1
    22    7   23 1
@<TRIPOS>MOLECULE
n-hexylacetate
   26    25     0     0     0
SMALL
NO_CHARGES

@<TRIPOS>ATOM
      1 C1         -4.4671   -0.8101    6.9542 C.2       1 <0>         0.0000
      2 C2         -5.6984    0.0340    7.0863 C.3       1 <0>         0.0000
      3 C3          1.7833   -1.3584    0.9178 C.3       1 <0>         0.0000
      4 C4          1.1442   -1.8866    2.1933 C.3       1 <0>         0.0000
      5 C5         -0.1230   -1.1065    2.5457 C.3       1 <0>         0.0000
      6 C6         -0.7660   -1.5523    3.8620 C.3       1 <0>         0.0000
      7 C7         -2.0456   -0.7898    4.2020 C.3       1 <0>         0.0000
      8 C8         -2.6297   -1.2442    5.5331 C.3       1 <0>         0.0000
      9 O1         -4.1114   -1.6374    7.7825 O.2       1 <0>         0.0000
     10 O2         -3.8211   -0.5123    5.7858 O.3       1 <0>         0.0000
     11 H1         -5.4560    0.9648    7.6050 H         1 <0>         0.0000
     12 H2         -6.4708   -0.5188    7.6269 H         1 <0>         0.0000
     13 H3         -6.0788    0.2788    6.0903 H         1 <0>         0.0000
     14 H4          1.0759   -1.4224    0.0850 H         1 <0>         0.0000
     15 H5          2.0797   -0.3109    1.0323 H         1 <0>         0.0000
     16 H6          2.6719   -1.9406    0.6536 H         1 <0>         0.0000
     17 H7          1.8672   -1.8141    3.0137 H         1 <0>         0.0000
     18 H8          0.9125   -2.9479    2.0545 H         1 <0>         0.0000
     19 H9         -0.8521   -1.1958    1.7312 H         1 <0>         0.0000
     20 H10         0.1252   -0.0410    2.6309 H         1 <0>         0.0000
     21 H11        -0.0356   -1.4015    4.6668 H         1 <0>         0.0000
     22 H12        -0.9747   -2.6284    3.8233 H         1 <0>         0.0000
     23 H13        -2.8003   -0.9283    3.4193 H         1 <0>         0.0000
     24 H14        -1.8465    0.2883    4.2424 H         1 <0>         0.0000
     25 H15        -2.8747   -2.3107    5.5080 H         1 <0>         0.0000
     26 H16        -1.9274   -1.0587    6.3521 H         1 <0>         0.0000
@<TRIPOS>BOND
     1    1    2 1
     2    1    9 2
     3    1   10 1
     4    3    4 1
     5    4    5 1
     6    5    6 1
     7    6    7 1
     8    7    8 1
     9    8   10 1
    10    2   11 1
    11    2   12 1
    12    2   13 1
    13    3   14 1
    14    3   15 1
    15    3   16 1
    16    4   17 1
    17    4   18 1
    18    5   19 1
    19    5   20 1
    20    6   21 1
    21    6   22 1
    22    7   23 1
    23    7   24 1
    24    8   25 1
    25    8   26 1
@<TRIPOS>MOLECULE
methylpropanoate
   14    13     0     0     0
SMALL
NO_CHARGES

@<TRIPOS>ATOM
      1 C1         -2.0715    1.2977    2.4497 C.2       1 <0>         0.0000
      2 C2         -0.8816    0.5302    0.3734 C.3       1 <0>         0.0000
      3 C3         -3.0831    1.9316    4.4926 C.3       1 <0>         0.0000
      4 C4         -0.8823    0.5514    1.8920 C.3       1 <0>         0.0000
      5 O1         -2.9385    1.8436    1.7813 O.2       1 <0>         0.0000
      6 O2         -2.0159    1.2612    3.8143 O.3       1 <0>         0.0000
      7 H1         -1.7850    0.0473   -0.0137 H         1 <0>         0.0000
      8 H2         -0.8422    1.5497   -0.0221 H         1 <0>         0.0000
      9 H3         -0.0168   -0.0202   -0.0117 H         1 <0>         0.0000
     10 H4         -2.9426    1.8421    5.5726 H         1 <0>         0.0000
     11 H5         -4.0378    1.4870    4.2005 H         1 <0>         0.0000
     12 H6         -3.0744    2.9876    4.2126 H         1 <0>         0.0000
     13 H7          0.0313    1.0393    2.2480 H         1 <0>         0.0000
     14 H8         -0.9104   -0.4767    2.2684 H         1 <0>         0.0000
@<TRIPOS>BOND
     1    1    4 1
     2    1    5 2
     3    1    6 1
     4    2    4 1
     5    3    6 1
     6    2    7 1
     7    2    8 1
     8    2    9 1
     9    3   10 1
    10    3   11 1
    11    3   12 1
    12    4   13 1
    13    4   14 1
@<TRIPOS>MOLECULE
ethylpropanoate
   17    16     0     0     0
SMALL
NO_CHARGES

@<TRIPOS>ATOM
      1 C1         -2.0715    1.2977    2.4497 C.2       1 <0>         0.0000
      2 C2         -0.8816    0.5302    0.3734 C.3       1 <0>         0.0000
      3 C3         -2.8772    1.8005    5.9866 C.3       1 <0>         0.0000
      4 C4         -0.8823    0.5514    1.8920 C.3       1 <0>         0.0000
      5 C5         -3.0831    1.9316    4.4926 C.3       1 <0>         0.0000
      6 O1         -2.9385    1.8436    1.7813 O.2       1 <0>         0.0000
      7 O2         -2.0159    1.2612    3.8143 O.3       1 <0>         0.0000
      8 H1         -1.7850    0.0473   -0.0137 H         1 <0>         0.0000
      9 H2         -0.8422    1.5497   -0.0221 H         1 <0>         0.0000
     10 H3         -0.0168   -0.0202   -0.0117 H         1 <0>         0.0000
     11 H4         -2.8766    0.7498    6.2897 H         1 <0>         0.0000
     12 H5         -1.9276    2.2556    6.2868 H         1 <0>         0.0000
     13 H6         -3.6683    2.3252    6.5326 H         1 <0>         0.0000
     14 H7          0.0313    1.0393    2.2480 H         1 <0>         0.0000
     15 H8         -0.9104   -0.4767    2.2684 H         1 <0>         0.0000
     16 H9         -3.0827    2.9847    4.1961 H         1 <0>         0.0000
     17 H10        -4.0319    1.4756    4.1943 H         1 <0>         0.0000
@<TRIPOS>BOND
     1    1    4 1
     2    1    6 2
     3    1    7 1
     4    2    4 1
     5    3    5 1
     6    5    7 1
     7    2    8 1
     8    2    9 1
     9    2   10 1
    10    3   11 1
    11    3   12 1
    12    3   13 1
    13    4   14 1
    14    4   15 1
    15    5   16 1
    16    5   17 1
@<TRIPOS>MOLECULE
n-propylpropanoate
   20    19     0     0     0
SMALL
NO_CHARGES

@<TRIPOS>ATOM
      1 C1         -1.6136    0.0807    4.3720 C.2       1 <0>         0.0000
      2 C2          0.0283   -1.8038    4.1101 C.3       1 <0>         0.0000
      3 C3         -4.5262    3.9925    4.4227 C.3       1 <0>         0.0000
      4 C4         -0.4896   -0.4939    3.5422 C.3       1 <0>         0.0000
      5 C5         -3.4077    3.2177    3.7493 C.3       1 <0>         0.0000
      6 C6         -3.0835    1.9309    4.4926 C.3       1 <0>         0.0000
      7 O1         -2.0821   -0.4341    5.3780 O.2       1 <0>         0.0000
      8 O2         -2.0159    1.2612    3.8143 O.3       1 <0>         0.0000
      9 H1          0.4064   -1.6689    5.1289 H         1 <0>         0.0000
     10 H2         -0.7716   -2.5501    4.1378 H         1 <0>         0.0000
     11 H3          0.8461   -2.2010    3.4997 H         1 <0>         0.0000
     12 H4         -5.4343    3.3856    4.4964 H         1 <0>         0.0000
     13 H5         -4.2299    4.2844    5.4351 H         1 <0>         0.0000
     14 H6         -4.7652    4.9023    3.8632 H         1 <0>         0.0000
     15 H7         -0.8598   -0.6610    2.5252 H         1 <0>         0.0000
     16 H8          0.3268    0.2354    3.5119 H         1 <0>         0.0000
     17 H9         -2.5086    3.8422    3.6853 H         1 <0>         0.0000
     18 H10        -3.6865    2.9847    2.7147 H         1 <0>         0.0000
     19 H11        -2.7664    2.1416    5.5190 H         1 <0>         0.0000
     20 H12        -3.9520    1.2650    4.5180 H         1 <0>         0.0000
@<TRIPOS>BOND
     1    1    4 1
     2    1    7 2
     3    1    8 1
     4    2    4 1
     5    3    5 1
     6    5    6 1
     7    6    8 1
     8    2    9 1
     9    2   10 1
    10    2   11 1
    11    3   12 1
    12    3   13 1
    13    3   14 1
    14    4   15 1
    15    4   16 1
    16    5   17 1
    17    5   18 1
    18    6   19 1
    19    6   20 1
@<TRIPOS>MOLECULE
n-pentylpropanoate
   23    22     0     0     0
SMALL
NO_CHARGES

@<TRIPOS>ATOM
      1 C1         -5.1255   -3.7642    0.1404 C.2       1 <0>         0.0000
      2 C2         -7.4951   -4.4801   -0.2938 C.3       1 <0>         0.0000
      3 C3          0.4086   -1.0630   -0.1228 C.3       1 <0>         0.0000
      4 C4         -6.3617   -3.5555   -0.7025 C.3       1 <0>         0.0000
      5 C5         -0.5745   -2.0349    0.5099 C.3       1 <0>         0.0000
      6 C6         -1.9307   -1.9925   -0.1885 C.3       1 <0>         0.0000
      7 C7         -2.9047   -2.9950    0.4140 C.3       1 <0>         0.0000
      8 O1         -5.0257   -4.5648    1.0599 O.2       1 <0>         0.0000
      9 O2         -4.1377   -2.9159   -0.2877 O.3       1 <0>         0.0000
     10 H1         -7.2015   -5.5303   -0.3937 H         1 <0>         0.0000
     11 H2         -7.7764   -4.3009    0.7484 H         1 <0>         0.0000
     12 H3         -8.3791   -4.3189   -0.9197 H         1 <0>         0.0000
     13 H4          0.0248   -0.0384   -0.0880 H         1 <0>         0.0000
     14 H5          1.3724   -1.0868    0.3957 H         1 <0>         0.0000
     15 H6          0.5802   -1.3260   -1.1712 H         1 <0>         0.0000
     16 H7         -6.6851   -2.5150   -0.5920 H         1 <0>         0.0000
     17 H8         -6.1025   -3.7416   -1.7502 H         1 <0>         0.0000
     18 H9         -0.1609   -3.0488    0.4588 H         1 <0>         0.0000
     19 H10        -0.6936   -1.7861    1.5708 H         1 <0>         0.0000
     20 H11        -2.3601   -0.9850   -0.1238 H         1 <0>         0.0000
     21 H12        -1.8129   -2.1993   -1.2596 H         1 <0>         0.0000
     22 H13        -2.5190   -4.0157    0.3261 H         1 <0>         0.0000
     23 H14        -3.0903   -2.7735    1.4699 H         1 <0>         0.0000
@<TRIPOS>BOND
     1    1    4 1
     2    1    8 2
     3    1    9 1
     4    2    4 1
     5    3    5 1
     6    5    6 1
     7    6    7 1
     8    7    9 1
     9    2   10 1
    10    2   11 1
    11    2   12 1
    12    3   13 1
    13    3   14 1
    14    3   15 1
    15    4   16 1
    16    4   17 1
    17    5   18 1
    18    5   19 1
    19    6   20 1
    20    6   21 1
    21    7   22 1
    22    7   23 1
@<TRIPOS>MOLECULE
methylbutanoate
   17    16     0     0     0
SMALL
NO_CHARGES

@<TRIPOS>ATOM
      1 C1          2.6749   -0.7723    3.1243 C.2       1 <0>         0.0000
      2 C2         -0.3728   -0.6665    0.7471 C.3       1 <0>         0.0000
      3 C3          4.8603   -1.0201    3.9967 C.3       1 <0>         0.0000
      4 C4          1.8852   -0.8881    1.8405 C.3       1 <0>         0.0000
      5 C5          0.4050   -0.5787    2.0501 C.3       1 <0>         0.0000
      6 O1          2.2128   -0.4519    4.2107 O.2       1 <0>         0.0000
      7 O2          3.9805   -1.0839    2.8696 O.3       1 <0>         0.0000
      8 H1          0.0427    0.0279    0.0100 H         1 <0>         0.0000
      9 H2         -0.3235   -1.6766    0.3280 H         1 <0>         0.0000
     10 H3         -1.4257   -0.4087    0.9008 H         1 <0>         0.0000
     11 H4          5.8733   -1.2860    3.6847 H         1 <0>         0.0000
     12 H5          4.5132   -1.7094    4.7705 H         1 <0>         0.0000
     13 H6          4.8588   -0.0014    4.3916 H         1 <0>         0.0000
     14 H7          2.3099   -0.1867    1.1135 H         1 <0>         0.0000
     15 H8          1.9989   -1.9095    1.4604 H         1 <0>         0.0000
     16 H9         -0.0246   -1.2800    2.7756 H         1 <0>         0.0000
     17 H10         0.2888    0.4258    2.4744 H         1 <0>         0.0000
@<TRIPOS>BOND
     1    1    4 1
     2    1    6 2
     3    1    7 1
     4    2    5 1
     5    3    7 1
     6    4    5 1
     7    2    8 1
     8    2    9 1
     9    2   10 1
    10    3   11 1
    11    3   12 1
    12    3   13 1
    13    4   14 1
    14    4   15 1
    15    5   16 1
    16    5   17 1
@<TRIPOS>MOLECULE
ethylbutanoate
   20    19     0     0     0
SMALL
NO_CHARGES

@<TRIPOS>ATOM
      1 C1          2.6749   -0.7723    3.1243 C.2       1 <0>         0.0000
      2 C2         -0.3781   -0.6942    0.7529 C.3       1 <0>         0.0000
      3 C3          6.2701   -1.3321    3.5399 C.3       1 <0>         0.0000
      4 C4          1.8852   -0.8881    1.8405 C.3       1 <0>         0.0000
      5 C5          0.4001   -0.6068    2.0556 C.3       1 <0>         0.0000
      6 C6          4.8658   -0.9912    3.9907 C.3       1 <0>         0.0000
      7 O1          2.2091   -0.4717    4.2148 O.2       1 <0>         0.0000
      8 O2          3.9853   -1.0584    2.8643 O.3       1 <0>         0.0000
      9 H1          0.0240    0.0152    0.0227 H         1 <0>         0.0000
     10 H2         -0.3119   -1.6988    0.3229 H         1 <0>         0.0000
     11 H3         -1.4351   -0.4565    0.9109 H         1 <0>         0.0000
     12 H4          6.3120   -2.3427    3.1241 H         1 <0>         0.0000
     13 H5          6.6146   -0.6227    2.7803 H         1 <0>         0.0000
     14 H6          6.9713   -1.2659    4.3785 H         1 <0>         0.0000
     15 H7          2.2964   -0.1716    1.1205 H         1 <0>         0.0000
     16 H8          2.0160   -1.9032    1.4493 H         1 <0>         0.0000
     17 H9         -0.0159   -1.3233    2.7741 H         1 <0>         0.0000
     18 H10         0.2672    0.3908    2.4908 H         1 <0>         0.0000
     19 H11         4.8309    0.0206    4.4056 H         1 <0>         0.0000
     20 H12         4.5228   -1.7015    4.7490 H         1 <0>         0.0000
@<TRIPOS>BOND
     1    1    4 1
     2    1    7 2
     3    1    8 1
     4    2    5 1
     5    3    6 1
     6    4    5 1
     7    6    8 1
     8    2    9 1
     9    2   10 1
    10    2   11 1
    11    3   12 1
    12    3   13 1
    13    3   14 1
    14    4   15 1
    15    4   16 1
    16    5   17 1
    17    5   18 1
    18    6   19 1
    19    6   20 1
@<TRIPOS>MOLECULE
n-propylbutanoate
   23    22     0     0     0
SMALL
NO_CHARGES

@<TRIPOS>ATOM
      1 C1          2.6749   -0.7723    3.1243 C.2       1 <0>         0.0000
      2 C2         -0.3781   -0.6942    0.7529 C.3       1 <0>         0.0000
      3 C3          7.2661   -1.2978    4.6838 C.3       1 <0>         0.0000
      4 C4          1.8852   -0.8881    1.8405 C.3       1 <0>         0.0000
      5 C5          0.4001   -0.6068    2.0556 C.3       1 <0>         0.0000
      6 C6          6.2755   -1.3342    3.5341 C.3       1 <0>         0.0000
      7 C7          4.8658   -0.9912    3.9907 C.3       1 <0>         0.0000
      8 O1          2.2091   -0.4717    4.2148 O.2       1 <0>         0.0000
      9 O2          3.9853   -1.0584    2.8643 O.3       1 <0>         0.0000
     10 H1          0.0240    0.0152    0.0227 H         1 <0>         0.0000
     11 H2         -0.3119   -1.6988    0.3229 H         1 <0>         0.0000
     12 H3         -1.4351   -0.4565    0.9109 H         1 <0>         0.0000
     13 H4          7.2764   -0.3128    5.1614 H         1 <0>         0.0000
     14 H5          6.9957   -2.0397    5.4417 H         1 <0>         0.0000
     15 H6          8.2794   -1.5218    4.3357 H         1 <0>         0.0000
     16 H7          2.2964   -0.1716    1.1205 H         1 <0>         0.0000
     17 H8          2.0160   -1.9032    1.4493 H         1 <0>         0.0000
     18 H9         -0.0159   -1.3233    2.7741 H         1 <0>         0.0000
     19 H10         0.2672    0.3908    2.4908 H         1 <0>         0.0000
     20 H11         6.2803   -2.3277    3.0699 H         1 <0>         0.0000
     21 H12         6.5888   -0.6343    2.7502 H         1 <0>         0.0000
     22 H13         4.5169   -1.7002    4.7484 H         1 <0>         0.0000
     23 H14         4.8247    0.0212    4.4051 H         1 <0>         0.0000
@<TRIPOS>BOND
     1    1    4 1
     2    1    8 2
     3    1    9 1
     4    2    5 1
     5    3    6 1
     6    4    5 1
     7    6    7 1
     8    7    9 1
     9    2   10 1
    10    2   11 1
    11    2   12 1
    12    3   13 1
    13    3   14 1
    14    3   15 1
    15    4   16 1
    16    4   17 1
    17    5   18 1
    18    5   19 1
    19    6   20 1
    20    6   21 1
    21    7   22 1
    22    7   23 1
@<TRIPOS>MOLECULE
methylpentanoate
   20    19     0     0     0
SMALL
NO_CHARGES

@<TRIPOS>ATOM
      1 C1          2.1308    1.0102    4.6318 C.2       1 <0>         0.0000
      2 C2         -0.5097    0.8297    0.3440 C.3       1 <0>         0.0000
      3 C3          3.2200    1.0848    6.7312 C.3       1 <0>         0.0000
      4 C4          0.7559    1.0090    4.0034 C.3       1 <0>         0.0000
      5 C5         -0.5734    0.9185    1.8603 C.3       1 <0>         0.0000
      6 C6          0.8236    0.9589    2.4780 C.3       1 <0>         0.0000
      7 O1          3.1875    0.9580    4.0177 O.2       1 <0>         0.0000
      8 O2          1.9958    1.0770    5.9897 O.3       1 <0>         0.0000
      9 H1          0.0439   -0.0594    0.0258 H         1 <0>         0.0000
     10 H2         -1.5141    0.7825   -0.0885 H         1 <0>         0.0000
     11 H3         -0.0043    1.7096   -0.0663 H         1 <0>         0.0000
     12 H4          2.9990    1.1399    7.8000 H         1 <0>         0.0000
     13 H5          3.8249    1.9433    6.4286 H         1 <0>         0.0000
     14 H6          3.7683    0.1633    6.5219 H         1 <0>         0.0000
     15 H7          0.2103    0.1356    4.3781 H         1 <0>         0.0000
     16 H8          0.2347    1.9194    4.3202 H         1 <0>         0.0000
     17 H9         -1.1328    1.8173    2.1450 H         1 <0>         0.0000
     18 H10        -1.1273    0.0554    2.2477 H         1 <0>         0.0000
     19 H11         1.3685    1.8348    2.1037 H         1 <0>         0.0000
     20 H12         1.3931    0.0757    2.1623 H         1 <0>         0.0000
@<TRIPOS>BOND
     1    1    4 1
     2    1    7 2
     3    1    8 1
     4    2    5 1
     5    3    8 1
     6    4    6 1
     7    5    6 1
     8    2    9 1
     9    2   10 1
    10    2   11 1
    11    3   12 1
    12    3   13 1
    13    3   14 1
    14    4   15 1
    15    4   16 1
    16    5   17 1
    17    5   18 1
    18    6   19 1
    19    6   20 1
@<TRIPOS>MOLECULE
ethylpentanoate
   23    22     0     0     0
SMALL
NO_CHARGES

@<TRIPOS>ATOM
      1 C1          2.1308    1.0102    4.6318 C.2       1 <0>         0.0000
      2 C2         -0.5097    0.8297    0.3440 C.3       1 <0>         0.0000
      3 C3          2.9007    1.1613    8.2091 C.3       1 <0>         0.0000
      4 C4          0.7559    1.0090    4.0034 C.3       1 <0>         0.0000
      5 C5         -0.5734    0.9185    1.8603 C.3       1 <0>         0.0000
      6 C6          0.8236    0.9589    2.4780 C.3       1 <0>         0.0000
      7 C7          3.2200    1.0848    6.7312 C.3       1 <0>         0.0000
      8 O1          3.1875    0.9580    4.0177 O.2       1 <0>         0.0000
      9 O2          1.9958    1.0770    5.9897 O.3       1 <0>         0.0000
     10 H1          0.0439   -0.0594    0.0258 H         1 <0>         0.0000
     11 H2         -1.5141    0.7825   -0.0885 H         1 <0>         0.0000
     12 H3         -0.0043    1.7096   -0.0663 H         1 <0>         0.0000
     13 H4          2.3460    2.0746    8.4417 H         1 <0>         0.0000
     14 H5          2.3052    0.2969    8.5206 H         1 <0>         0.0000
     15 H6          3.8201    1.1454    8.8037 H         1 <0>         0.0000
     16 H7          0.2103    0.1356    4.3781 H         1 <0>         0.0000
     17 H8          0.2347    1.9194    4.3202 H         1 <0>         0.0000
     18 H9         -1.1328    1.8173    2.1450 H         1 <0>         0.0000
     19 H10        -1.1273    0.0554    2.2477 H         1 <0>         0.0000
     20 H11         1.3685    1.8348    2.1037 H         1 <0>         0.0000
     21 H12         1.3931    0.0757    2.1623 H         1 <0>         0.0000
     22 H13         3.7747    0.1693    6.5054 H         1 <0>         0.0000
     23 H14         3.8142    1.9496    6.4215 H         1 <0>         0.0000
@<TRIPOS>BOND
     1    1    4 1
     2    1    8 2
     3    1    9 1
     4    2    5 1
     5    3    7 1
     6    4    6 1
     7    5    6 1
     8    7    9 1
     9    2   10 1
    10    2   11 1
    11    2   12 1
    12    3   13 1
    13    3   14 1
    14    3   15 1
    15    4   16 1
    16    4   17 1
    17    5   18 1
    18    5   19 1
    19    6   20 1
    20    6   21 1
    21    7   22 1
    22    7   23 1
@<TRIPOS>MOLECULE
methylhexanoate
   23    22     0     0     0
SMALL
NO_CHARGES

@<TRIPOS>ATOM
      1 C1          1.5898    0.9607    6.3332 C.2       1 <0>         0.0000
      2 C2          0.0860    1.1284    0.1342 C.3       1 <0>         0.0000
      3 C3          2.6053    0.7410    8.4590 C.3       1 <0>         0.0000
      4 C4          1.7849    0.6046    4.8759 C.3       1 <0>         0.0000
      5 C5         -0.1408    1.4632    1.5999 C.3       1 <0>         0.0000
      6 C6          0.7154    1.2021    3.9617 C.3       1 <0>         0.0000
      7 C7          0.9236    0.8238    2.4919 C.3       1 <0>         0.0000
      8 O1          0.6594    1.6175    6.7799 O.2       1 <0>         0.0000
      9 O2          2.6334    0.4569    7.0565 O.3       1 <0>         0.0000
     10 H1          1.0736    1.4653   -0.1969 H         1 <0>         0.0000
     11 H2          0.0154    0.0495   -0.0373 H         1 <0>         0.0000
     12 H3         -0.6675    1.6211   -0.4880 H         1 <0>         0.0000
     13 H4          3.4796    0.2950    8.9394 H         1 <0>         0.0000
     14 H5          1.6895    0.3347    8.8957 H         1 <0>         0.0000
     15 H6          2.6260    1.8238    8.6029 H         1 <0>         0.0000
     16 H7          1.7927   -0.4862    4.7709 H         1 <0>         0.0000
     17 H8          2.7670    0.9894    4.5782 H         1 <0>         0.0000
     18 H9         -1.1358    1.1133    1.8985 H         1 <0>         0.0000
     19 H10        -0.1279    2.5520    1.7261 H         1 <0>         0.0000
     20 H11         0.7515    2.2945    4.0546 H         1 <0>         0.0000
     21 H12        -0.2825    0.8871    4.2894 H         1 <0>         0.0000
     22 H13         0.8892   -0.2654    2.3743 H         1 <0>         0.0000
     23 H14         1.9187    1.1513    2.1669 H         1 <0>         0.0000
@<TRIPOS>BOND
     1    1    4 1
     2    1    8 2
     3    1    9 1
     4    2    5 1
     5    3    9 1
     6    4    6 1
     7    5    7 1
     8    6    7 1
     9    2   10 1
    10    2   11 1
    11    2   12 1
    12    3   13 1
    13    3   14 1
    14    3   15 1
    15    4   16 1
    16    4   17 1
    17    5   18 1
    18    5   19 1
    19    6   20 1
    20    6   21 1
    21    7   22 1
    22    7   23 1
@<TRIPOS>MOLECULE
ethylhexanoate
   26    25     0     0     0
SMALL
NO_CHARGES

@<TRIPOS>ATOM
      1 C1          1.6363   -0.8882    5.0705 C.2       1 <0>         0.0000
      2 C2         -0.0778    4.7906    2.7190 C.3       1 <0>         0.0000
      3 C3          3.6410   -3.0216    7.2707 C.3       1 <0>         0.0000
      4 C4          1.7849    0.6046    4.8759 C.3       1 <0>         0.0000
      5 C5         -0.2159    3.2849    2.8782 C.3       1 <0>         0.0000
      6 C6          0.7154    1.2021    3.9617 C.3       1 <0>         0.0000
      7 C7          0.8868    2.7120    3.7688 C.3       1 <0>         0.0000
      8 C8          2.5433   -2.7114    6.2756 C.3       1 <0>         0.0000
      9 O1          0.7896   -1.5884    4.5326 O.2       1 <0>         0.0000
     10 O2          2.5780   -1.3151    5.9634 O.3       1 <0>         0.0000
     11 H1         -0.1122    5.2926    3.6912 H         1 <0>         0.0000
     12 H2          0.8680    5.0486    2.2320 H         1 <0>         0.0000
     13 H3         -0.8941    5.1831    2.1047 H         1 <0>         0.0000
     14 H4          4.6236   -2.7813    6.8553 H         1 <0>         0.0000
     15 H5          3.4980   -2.4503    8.1938 H         1 <0>         0.0000
     16 H6          3.6237   -4.0813    7.5464 H         1 <0>         0.0000
     17 H7          2.7796    0.8162    4.4676 H         1 <0>         0.0000
     18 H8          1.7100    1.0684    5.8661 H         1 <0>         0.0000
     19 H9         -0.1776    2.8140    1.8890 H         1 <0>         0.0000
     20 H10        -1.1982    3.0574    3.3084 H         1 <0>         0.0000
     21 H11        -0.2680    1.0116    4.4088 H         1 <0>         0.0000
     22 H12         0.7254    0.6988    2.9874 H         1 <0>         0.0000
     23 H13         1.8637    2.9265    3.3202 H         1 <0>         0.0000
     24 H14         0.8647    3.2108    4.7455 H         1 <0>         0.0000
     25 H15         1.5633   -2.9540    6.6972 H         1 <0>         0.0000
     26 H16         2.6881   -3.2824    5.3537 H         1 <0>         0.0000
@<TRIPOS>BOND
     1    1    4 1
     2    1    9 2
     3    1   10 1
     4    2    5 1
     5    3    8 1
     6    4    6 1
     7    5    7 1
     8    6    7 1
     9    8   10 1
    10    2   11 1
    11    2   12 1
    12    2   13 1
    13    3   14 1
    14    3   15 1
    15    3   16 1
    16    4   17 1
    17    4   18 1
    18    5   19 1
    19    5   20 1
    20    6   21 1
    21    6   22 1
    22    7   23 1
    23    7   24 1
    24    8   25 1
    25    8   26 1
@<TRIPOS>MOLECULE
isobutylisobutanoate
   29    28     0     0     0
SMALL
NO_CHARGES

@<TRIPOS>ATOM
      1 C1         -2.8783   -0.1996    2.9403 C.2       1 <0>         0.0000
      2 C2         -1.1493    0.4220    0.5212 C.3       1 <0>         0.0000
      3 C3          0.6214    1.2434    2.0886 C.3       1 <0>         0.0000
      4 C4         -6.5162    1.8788    3.1514 C.3       1 <0>         0.0000
      5 C5         -7.5991   -0.1517    4.1524 C.3       1 <0>         0.0000
      6 C6         -1.6598    0.6976    2.9885 C.3       1 <0>         0.0000
      7 C7         -5.1837   -0.2461    3.4706 C.3       1 <0>         0.0000
      8 C8         -0.5948    0.3266    1.9448 C.3       1 <0>         0.0000
      9 C9         -6.3005    0.6419    4.0261 C.3       1 <0>         0.0000
     10 O1         -2.8821   -1.3623    2.5600 O.2       1 <0>         0.0000
     11 O2         -3.9562    0.4883    3.4209 O.3       1 <0>         0.0000
     12 H1         -1.4985    1.4360    0.2979 H         1 <0>         0.0000
     13 H2         -0.3781    0.1626   -0.2121 H         1 <0>         0.0000
     14 H3         -1.9887   -0.2644    0.3732 H         1 <0>         0.0000
     15 H4          0.3499    2.2926    1.9297 H         1 <0>         0.0000
     16 H5          1.0598    1.1541    3.0882 H         1 <0>         0.0000
     17 H6          1.3960    0.9795    1.3607 H         1 <0>         0.0000
     18 H7         -6.8154    1.5894    2.1383 H         1 <0>         0.0000
     19 H8         -5.6007    2.4755    3.0758 H         1 <0>         0.0000
     20 H9         -7.3056    2.5189    3.5588 H         1 <0>         0.0000
     21 H10        -7.9273   -0.5195    3.1744 H         1 <0>         0.0000
     22 H11        -8.3999    0.4752    4.5588 H         1 <0>         0.0000
     23 H12        -7.4752   -1.0154    4.8146 H         1 <0>         0.0000
     24 H13        -1.9777    1.7362    2.8371 H         1 <0>         0.0000
     25 H14        -1.2431    0.6093    3.9989 H         1 <0>         0.0000
     26 H15        -5.0302   -1.1186    4.1143 H         1 <0>         0.0000
     27 H16        -5.4219   -0.5953    2.4601 H         1 <0>         0.0000
     28 H17        -0.2611   -0.7049    2.1140 H         1 <0>         0.0000
     29 H18        -6.0043    0.9929    5.0228 H         1 <0>         0.0000
@<TRIPOS>BOND
     1    1    6 1
     2    1   10 2
     3    1   11 1
     4    2    8 1
     5    3    8 1
     6    4    9 1
     7    5    9 1
     8    6    8 1
     9    7    9 1
    10    7   11 1
    11    2   12 1
    12    2   13 1
    13    2   14 1
    14    3   15 1
    15    3   16 1
    16    3   17 1
    17    4   18 1
    18    4   19 1
    19    4   20 1
    20    5   21 1
    21    5   22 1
    22    5   23 1
    23    6   24 1
    24    6   25 1
    25    7   26 1
    26    7   27 1
    27    8   28 1
    28    9   29 1
@<TRIPOS>MOLECULE
propanitrile
    9     8     0     0     0
SMALL
NO_CHARGES

@<TRIPOS>ATOM
      1 C1          2.0234   -1.2467    2.3255 C.1       1 <0>         0.0000
      2 C2          0.6419   -0.7484    0.4847 C.3       1 <0>         0.0000
      3 C3          1.1888   -0.1853    1.7565 C.3       1 <0>         0.0000
      4 N1          2.6856   -2.0831    2.7823 N.1       1 <0>         0.0000
      5 H1          1.4417   -1.0234   -0.2129 H         1 <0>         0.0000
      6 H2          0.0767   -1.6647    0.7040 H         1 <0>         0.0000
      7 H3         -0.0511   -0.0515   -0.0012 H         1 <0>         0.0000
      8 H4          0.3742    0.0817    2.4366 H         1 <0>         0.0000
      9 H5          1.7795    0.7130    1.5529 H         1 <0>         0.0000
@<TRIPOS>BOND
     1    1    3 1
     2    1    4 3
     3    2    3 1
     4    2    5 1
     5    2    6 1
     6    2    7 1
     7    3    8 1
     8    3    9 1
@<TRIPOS>MOLECULE
butanenitrile
   12    11     0     0     0
SMALL
NO_CHARGES

@<TRIPOS>ATOM
      1 C1         -2.2442    3.3040   -1.0639 C.1       1 <0>         0.0000
      2 C2         -0.0177    0.2011   -1.0759 C.3       1 <0>         0.0000
      3 C3         -1.0966    2.4513   -0.7272 C.3       1 <0>         0.0000
      4 C4         -1.1844    1.1047   -1.4423 C.3       1 <0>         0.0000
      5 N1         -3.1499    3.9792   -1.3289 N.1       1 <0>         0.0000
      6 H1          0.0217    0.0299    0.0046 H         1 <0>         0.0000
      7 H2         -0.1012   -0.7694   -1.5754 H         1 <0>         0.0000
      8 H3          0.9277    0.6600   -1.3817 H         1 <0>         0.0000
      9 H4         -0.1679    2.9616   -1.0073 H         1 <0>         0.0000
     10 H5         -1.0634    2.2954    0.3573 H         1 <0>         0.0000
     11 H6         -1.1955    1.2559   -2.5289 H         1 <0>         0.0000
     12 H7         -2.1245    0.6021   -1.1833 H         1 <0>         0.0000
@<TRIPOS>BOND
     1    1    3 1
     2    1    5 3
     3    2    4 1
     4    3    4 1
     5    2    6 1
     6    2    7 1
     7    2    8 1
     8    3    9 1
     9    3   10 1
    10    4   11 1
    11    4   12 1
@<TRIPOS>MOLECULE
pentanenitrile
   15    14     0     0     0
SMALL
NO_CHARGES

@<TRIPOS>ATOM
      1 C1          0.7263    2.8961    5.1051 C.1       1 <0>         0.0000
      2 C2          0.1482    0.9343    0.5521 C.3       1 <0>         0.0000
      3 C3          0.5466    1.6542    4.3415 C.3       1 <0>         0.0000
      4 C4          0.2523    0.6526    2.0425 C.3       1 <0>         0.0000
      5 C5          0.4020    1.9434    2.8476 C.3       1 <0>         0.0000
      6 N1          0.8675    3.8762    5.7100 N.1       1 <0>         0.0000
      7 H1          1.0294    1.4755    0.1930 H         1 <0>         0.0000
      8 H2          0.0752   -0.0040   -0.0066 H         1 <0>         0.0000
      9 H3         -0.7395    1.5340    0.3270 H         1 <0>         0.0000
     10 H4         -0.3424    1.1271    4.7064 H         1 <0>         0.0000
     11 H5          1.4049    0.9938    4.5114 H         1 <0>         0.0000
     12 H6         -0.6430    0.1113    2.3697 H         1 <0>         0.0000
     13 H7          1.1124   -0.0021    2.2251 H         1 <0>         0.0000
     14 H8         -0.4709    2.5868    2.6771 H         1 <0>         0.0000
     15 H9          1.2780    2.5004    2.4909 H         1 <0>         0.0000
@<TRIPOS>BOND
     1    1    3 1
     2    1    6 3
     3    2    4 1
     4    3    5 1
     5    4    5 1
     6    2    7 1
     7    2    8 1
     8    2    9 1
     9    3   10 1
    10    3   11 1
    11    4   12 1
    12    4   13 1
    13    5   14 1
    14    5   15 1
@<TRIPOS>MOLECULE
ammonia
    4     3     0     0     0
SMALL
NO_CHARGES

@<TRIPOS>ATOM
      1 N1         -0.1928   -0.0275   -0.2222 N.3       1 <0>         0.0000
      2 H1         -0.6347    0.2631    0.6488 H         1 <0>         0.0000
      3 H2          0.5328    0.6620   -0.4131 H         1 <0>         0.0000
      4 H3          0.2947   -0.8976   -0.0135 H         1 <0>         0.0000
@<TRIPOS>BOND
     1    1    2 1
     2    1    3 1
     3    1    4 1
@<TRIPOS>MOLECULE
methylamine
    7     6     0     0     0
SMALL
NO_CHARGES

@<TRIPOS>ATOM
      1 C1         -0.6179   -0.7479    0.5044 C.3       1 <0>         0.0000
      2 N1         -1.8495   -0.9393   -0.2112 N.3       1 <0>         0.0000
      3 H1         -0.2695   -1.6996    0.9140 H         1 <0>         0.0000
      4 H2         -0.7645   -0.0432    1.3274 H         1 <0>         0.0000
      5 H3          0.1501   -0.3505   -0.1647 H         1 <0>         0.0000
      6 H4         -2.7184   -0.9540    0.2997 H         1 <0>         0.0000
      7 H5         -1.8188   -1.2562   -1.1677 H         1 <0>         0.0000
@<TRIPOS>BOND
     1    1    2 1
     2    1    3 1
     3    1    4 1
     4    1    5 1
     5    2    6 1
     6    2    7 1
@<TRIPOS>MOLECULE
ethylamine
   10     9     0     0     0
SMALL
NO_CHARGES

@<TRIPOS>ATOM
      1 C1          0.4075    0.1872    0.9994 C.3       1 <0>         0.0000
      2 C2          1.2109   -0.9764    1.4719 C.3       1 <0>         0.0000
      3 N1          2.3152   -1.2363    0.5901 N.3       1 <0>         0.0000
      4 H1          1.0198    1.0946    0.9602 H         1 <0>         0.0000
      5 H2         -0.0143   -0.0069    0.0073 H         1 <0>         0.0000
      6 H3         -0.4236    0.3700    1.6911 H         1 <0>         0.0000
      7 H4          0.5936   -1.8790    1.5087 H         1 <0>         0.0000
      8 H5          1.6184   -0.7872    2.4694 H         1 <0>         0.0000
      9 H6          2.1881   -1.1263   -0.4040 H         1 <0>         0.0000
     10 H7          3.1282   -1.7143    0.9466 H         1 <0>         0.0000
@<TRIPOS>BOND
     1    1    2 1
     2    2    3 1
     3    1    4 1
     4    1    5 1
     5    1    6 1
     6    2    7 1
     7    2    8 1
     8    3    9 1
     9    3   10 1
@<TRIPOS>MOLECULE
n-propylamine
   13    12     0     0     0
SMALL
NO_CHARGES

@<TRIPOS>ATOM
      1 C1          0.9917    0.0882   -0.4552 C.3       1 <0>         0.0000
      2 C2          1.2282    1.5173   -0.9225 C.3       1 <0>         0.0000
      3 C3          2.6189    1.7221   -1.5111 C.3       1 <0>         0.0000
      4 N1          2.8413    3.0780   -1.9307 N.3       1 <0>         0.0000
      5 H1          1.1073   -0.6192   -1.2826 H         1 <0>         0.0000
      6 H2          1.7156   -0.1786    0.3216 H         1 <0>         0.0000
      7 H3         -0.0113   -0.0335   -0.0348 H         1 <0>         0.0000
      8 H4          1.1032    2.1909   -0.0667 H         1 <0>         0.0000
      9 H5          0.4636    1.7859   -1.6611 H         1 <0>         0.0000
     10 H6          3.3810    1.4905   -0.7604 H         1 <0>         0.0000
     11 H7          2.7840    1.0720   -2.3761 H         1 <0>         0.0000
     12 H8          3.5322    3.2671   -2.6404 H         1 <0>         0.0000
     13 H9          2.4623    3.8326   -1.3797 H         1 <0>         0.0000
@<TRIPOS>BOND
     1    1    2 1
     2    2    3 1
     3    3    4 1
     4    1    5 1
     5    1    6 1
     6    1    7 1
     7    2    8 1
     8    2    9 1
     9    3   10 1
    10    3   11 1
    11    4   12 1
    12    4   13 1
@<TRIPOS>MOLECULE
n-butylamine
   16    15     0     0     0
SMALL
NO_CHARGES

@<TRIPOS>ATOM
      1 C1         -0.5555    0.9360   -0.1153 C.3       1 <0>         0.0000
      2 C2         -1.0392    1.4313    1.2387 C.3       1 <0>         0.0000
      3 C3         -1.8134    2.7450    1.1091 C.3       1 <0>         0.0000
      4 C4         -2.3629    3.2356    2.4445 C.3       1 <0>         0.0000
      5 N1         -3.1108    4.4553    2.3147 N.3       1 <0>         0.0000
      6 H1          0.0878    1.6790   -0.5976 H         1 <0>         0.0000
      7 H2          0.0207    0.0129    0.0026 H         1 <0>         0.0000
      8 H3         -1.3989    0.7271   -0.7812 H         1 <0>         0.0000
      9 H4         -1.6789    0.6659    1.6933 H         1 <0>         0.0000
     10 H5         -0.1737    1.5646    1.8974 H         1 <0>         0.0000
     11 H6         -1.1638    3.5127    0.6707 H         1 <0>         0.0000
     12 H7         -2.6533    2.6000    0.4188 H         1 <0>         0.0000
     13 H8         -1.5580    3.4105    3.1654 H         1 <0>         0.0000
     14 H9         -3.0418    2.4880    2.8669 H         1 <0>         0.0000
     15 H10        -2.7787    5.1727    1.6889 H         1 <0>         0.0000
     16 H11        -3.8317    4.6651    2.9878 H         1 <0>         0.0000
@<TRIPOS>BOND
     1    1    2 1
     2    2    3 1
     3    3    4 1
     4    4    5 1
     5    1    6 1
     6    1    7 1
     7    1    8 1
     8    2    9 1
     9    2   10 1
    10    3   11 1
    11    3   12 1
    12    4   13 1
    13    4   14 1
    14    5   15 1
    15    5   16 1
@<TRIPOS>MOLECULE
n-pentylamine
   19    18     0     0     0
SMALL
NO_CHARGES

@<TRIPOS>ATOM
      1 C1         -0.0052   -0.6723    0.8990 C.3       1 <0>         0.0000
      2 C2          1.2685   -0.4528    1.6997 C.3       1 <0>         0.0000
      3 C3          2.5112   -0.8072    0.8834 C.3       1 <0>         0.0000
      4 C4          3.7878   -0.6173    1.7026 C.3       1 <0>         0.0000
      5 C5          5.0290   -0.9341    0.8770 C.3       1 <0>         0.0000
      6 N1          6.2327   -0.7504    1.6409 N.3       1 <0>         0.0000
      7 H1          0.0117   -0.0681   -0.0135 H         1 <0>         0.0000
      8 H2         -0.1103   -1.7226    0.6090 H         1 <0>         0.0000
      9 H3         -0.8878   -0.3858    1.4797 H         1 <0>         0.0000
     10 H4          1.2322   -1.0655    2.6080 H         1 <0>         0.0000
     11 H5          1.3177    0.5954    2.0170 H         1 <0>         0.0000
     12 H6          2.5534   -0.1776   -0.0138 H         1 <0>         0.0000
     13 H7          2.4435   -1.8482    0.5444 H         1 <0>         0.0000
     14 H8          3.7607   -1.2638    2.5887 H         1 <0>         0.0000
     15 H9          3.8430    0.4152    2.0697 H         1 <0>         0.0000
     16 H10         5.0958   -0.2813    0.0011 H         1 <0>         0.0000
     17 H11         5.0143   -1.9738    0.5347 H         1 <0>         0.0000
     18 H12         6.2945    0.0239    2.2832 H         1 <0>         0.0000
     19 H13         7.0618   -1.2625    1.3831 H         1 <0>         0.0000
@<TRIPOS>BOND
     1    1    2 1
     2    2    3 1
     3    3    4 1
     4    4    5 1
     5    5    6 1
     6    1    7 1
     7    1    8 1
     8    1    9 1
     9    2   10 1
    10    2   11 1
    11    3   12 1
    12    3   13 1
    13    4   14 1
    14    4   15 1
    15    5   16 1
    16    5   17 1
    17    6   18 1
    18    6   19 1
@<TRIPOS>MOLECULE
n-hexylamine
   22    21     0     0     0
SMALL
NO_CHARGES

@<TRIPOS>ATOM
      1 C1         -2.2688   -1.4461    1.9686 C.3       1 <0>         0.0000
      2 C2         -1.0925   -0.5057    1.7565 C.3       1 <0>         0.0000
      3 C3         -1.2660    0.8539    2.4368 C.3       1 <0>         0.0000
      4 C4         -0.0497    1.7702    2.2805 C.3       1 <0>         0.0000
      5 C5         -0.2653    3.1033    3.0050 C.3       1 <0>         0.0000
      6 C6          0.9524    4.0184    2.9198 C.3       1 <0>         0.0000
      7 N1          0.7605    5.2596    3.6186 N.3       1 <0>         0.0000
      8 H1         -2.4592   -1.6033    3.0349 H         1 <0>         0.0000
      9 H2         -3.1815   -1.0584    1.5068 H         1 <0>         0.0000
     10 H3         -2.0570   -2.4199    1.5151 H         1 <0>         0.0000
     11 H4         -0.9252   -0.3670    0.6820 H         1 <0>         0.0000
     12 H5         -0.1900   -0.9817    2.1584 H         1 <0>         0.0000
     13 H6         -2.1585    1.3526    2.0397 H         1 <0>         0.0000
     14 H7         -1.4496    0.6807    3.5045 H         1 <0>         0.0000
     15 H8          0.1388    1.9591    1.2182 H         1 <0>         0.0000
     16 H9          0.8393    1.2726    2.6863 H         1 <0>         0.0000
     17 H10        -1.1422    3.6116    2.5854 H         1 <0>         0.0000
     18 H11        -0.4805    2.9075    4.0625 H         1 <0>         0.0000
     19 H12         1.1954    4.2545    1.8790 H         1 <0>         0.0000
     20 H13         1.8212    3.5297    3.3717 H         1 <0>         0.0000
     21 H14        -0.1354    5.7189    3.5690 H         1 <0>         0.0000
     22 H15         1.5642    5.7537    3.9737 H         1 <0>         0.0000
@<TRIPOS>BOND
     1    1    2 1
     2    2    3 1
     3    3    4 1
     4    4    5 1
     5    5    6 1
     6    6    7 1
     7    1    8 1
     8    1    9 1
     9    1   10 1
    10    2   11 1
    11    2   12 1
    12    3   13 1
    13    3   14 1
    14    4   15 1
    15    4   16 1
    16    5   17 1
    17    5   18 1
    18    6   19 1
    19    6   20 1
    20    7   21 1
    21    7   22 1
@<TRIPOS>MOLECULE
n-heptylamine
   25    24     0     0     0
SMALL
NO_CHARGES

@<TRIPOS>ATOM
      1 C1          0.6451   -0.7072    0.1067 C.3       1 <0>         0.0000
      2 C2          0.1466   -2.0967   -0.2574 C.3       1 <0>         0.0000
      3 C3         -0.2982   -2.1672   -1.7189 C.3       1 <0>         0.0000
      4 C4         -0.8290   -3.5588   -2.0696 C.3       1 <0>         0.0000
      5 C5         -1.3010   -3.6830   -3.5212 C.3       1 <0>         0.0000
      6 C6         -1.7630   -5.0943   -3.8931 C.3       1 <0>         0.0000
      7 C7         -2.2538   -5.1485   -5.3398 C.3       1 <0>         0.0000
      8 N1         -2.6813   -6.5006   -5.6792 N.3       1 <0>         0.0000
      9 H1         -0.1316    0.0452   -0.0637 H         1 <0>         0.0000
     10 H2          0.9440   -0.6605    1.1588 H         1 <0>         0.0000
     11 H3          1.5135   -0.4436   -0.5052 H         1 <0>         0.0000
     12 H4          0.9464   -2.8239   -0.0754 H         1 <0>         0.0000
     13 H5         -0.6899   -2.3624    0.3995 H         1 <0>         0.0000
     14 H6          0.5474   -1.9204   -2.3721 H         1 <0>         0.0000
     15 H7         -1.0745   -1.4137   -1.8928 H         1 <0>         0.0000
     16 H8         -0.0338   -4.2967   -1.9055 H         1 <0>         0.0000
     17 H9         -1.6498   -3.8242   -1.3921 H         1 <0>         0.0000
     18 H10        -2.1107   -2.9670   -3.7071 H         1 <0>         0.0000
     19 H11        -0.4688   -3.3951   -4.1759 H         1 <0>         0.0000
     20 H12        -0.9330   -5.7986   -3.7554 H         1 <0>         0.0000
     21 H13        -2.5724   -5.4111   -3.2251 H         1 <0>         0.0000
     22 H14        -3.0966   -4.4626   -5.4773 H         1 <0>         0.0000
     23 H15        -1.4557   -4.8384   -6.0233 H         1 <0>         0.0000
     24 H16        -2.6712   -6.7708   -6.6398 H         1 <0>         0.0000
     25 H17        -3.1558   -7.0338   -4.9816 H         1 <0>         0.0000
@<TRIPOS>BOND
     1    1    2 1
     2    2    3 1
     3    3    4 1
     4    4    5 1
     5    5    6 1
     6    6    7 1
     7    7    8 1
     8    1    9 1
     9    1   10 1
    10    1   11 1
    11    2   12 1
    12    2   13 1
    13    3   14 1
    14    3   15 1
    15    4   16 1
    16    4   17 1
    17    5   18 1
    18    5   19 1
    19    6   20 1
    20    6   21 1
    21    7   22 1
    22    7   23 1
    23    8   24 1
    24    8   25 1
@<TRIPOS>MOLECULE
n-octylamine
   28    27     0     0     0
SMALL
NO_CHARGES

@<TRIPOS>ATOM
      1 C1          4.0693   -1.0826    3.7024 C.3       1 <0>         0.0000
      2 C2          3.4732   -0.0336    2.7774 C.3       1 <0>         0.0000
      3 C3          4.4806    0.4171    1.7188 C.3       1 <0>         0.0000
      4 C4          3.8644    1.4479    0.7711 C.3       1 <0>         0.0000
      5 C5          4.8562    2.0034   -0.2556 C.3       1 <0>         0.0000
      6 C6          4.2826    2.9942   -1.2741 C.3       1 <0>         0.0000
      7 C7          5.3022    3.4471   -2.3239 C.3       1 <0>         0.0000
      8 C8          4.7268    4.4773   -3.2914 C.3       1 <0>         0.0000
      9 N1          5.6899    4.9182   -4.2621 N.3       1 <0>         0.0000
     10 H1          4.4009   -1.9518    3.1259 H         1 <0>         0.0000
     11 H2          4.9334   -0.6835    4.2431 H         1 <0>         0.0000
     12 H3          3.3317   -1.4229    4.4363 H         1 <0>         0.0000
     13 H4          3.1477    0.8272    3.3730 H         1 <0>         0.0000
     14 H5          2.5822   -0.4474    2.2909 H         1 <0>         0.0000
     15 H6          5.3610    0.8486    2.2100 H         1 <0>         0.0000
     16 H7          4.8194   -0.4580    1.1529 H         1 <0>         0.0000
     17 H8          2.9977    1.0129    0.2604 H         1 <0>         0.0000
     18 H9          3.4808    2.2910    1.3599 H         1 <0>         0.0000
     19 H10         5.6786    2.4882    0.2852 H         1 <0>         0.0000
     20 H11         5.3025    1.1646   -0.8044 H         1 <0>         0.0000
     21 H12         3.8681    3.8673   -0.7572 H         1 <0>         0.0000
     22 H13         3.4376    2.5047   -1.7737 H         1 <0>         0.0000
     23 H14         5.6663    2.5764   -2.8827 H         1 <0>         0.0000
     24 H15         6.1666    3.8992   -1.8254 H         1 <0>         0.0000
     25 H16         4.4003    5.3652   -2.7406 H         1 <0>         0.0000
     26 H17         3.8640    4.0758   -3.8323 H         1 <0>         0.0000
     27 H18         6.6505    5.0421   -3.9819 H         1 <0>         0.0000
     28 H19         5.3675    5.2901   -5.1421 H         1 <0>         0.0000
@<TRIPOS>BOND
     1    1    2 1
     2    2    3 1
     3    3    4 1
     4    4    5 1
     5    5    6 1
     6    6    7 1
     7    7    8 1
     8    8    9 1
     9    1   10 1
    10    1   11 1
    11    1   12 1
    12    2   13 1
    13    2   14 1
    14    3   15 1
    15    3   16 1
    16    4   17 1
    17    4   18 1
    18    5   19 1
    19    5   20 1
    20    6   21 1
    21    6   22 1
    22    7   23 1
    23    7   24 1
    24    8   25 1
    25    8   26 1
    26    9   27 1
    27    9   28 1
@<TRIPOS>MOLECULE
cyclohexylamine
   20    20     0     0     0
SMALL
NO_CHARGES

@<TRIPOS>ATOM
      1 C1          0.5636    0.5439   -0.7663 C.3       1 <0>         0.0000
      2 C2          0.3506   -0.1159   -2.1257 C.3       1 <0>         0.0000
      3 C3          0.1339    2.0082   -0.7774 C.3       1 <0>         0.0000
      4 C4          1.0408    0.6628   -3.2444 C.3       1 <0>         0.0000
      5 C5          0.8244    2.7893   -1.8941 C.3       1 <0>         0.0000
      6 C6          0.5978    2.1300   -3.2590 C.3       1 <0>         0.0000
      7 N1          1.3312    2.8600   -4.2912 N.3       1 <0>         0.0000
      8 H1         -0.0003   -0.0001   -0.0002 H         1 <0>         0.0000
      9 H2          1.6233    0.4772   -0.4908 H         1 <0>         0.0000
     10 H3          0.7339   -1.1423   -2.1012 H         1 <0>         0.0000
     11 H4         -0.7241   -0.1812   -2.3359 H         1 <0>         0.0000
     12 H5         -0.9536    2.0687   -0.9086 H         1 <0>         0.0000
     13 H6          0.3651    2.4674    0.1903 H         1 <0>         0.0000
     14 H7          2.1282    0.5956   -3.1068 H         1 <0>         0.0000
     15 H8          0.8129    0.1888   -4.2071 H         1 <0>         0.0000
     16 H9          0.4434    3.8179   -1.9023 H         1 <0>         0.0000
     17 H10         1.8988    2.8502   -1.6757 H         1 <0>         0.0000
     18 H11        -0.4669    2.1774   -3.5038 H         1 <0>         0.0000
     19 H12         1.4024    3.8493   -4.2021 H         1 <0>         0.0000
     20 H13         1.5516    2.3794   -5.1354 H         1 <0>         0.0000
@<TRIPOS>BOND
     1    1    2 1
     2    1    3 1
     3    2    4 1
     4    3    5 1
     5    4    6 1
     6    5    6 1
     7    6    7 1
     8    1    8 1
     9    1    9 1
    10    2   10 1
    11    2   11 1
    12    3   12 1
    13    3   13 1
    14    4   14 1
    15    4   15 1
    16    5   16 1
    17    5   17 1
    18    6   18 1
    19    7   19 1
    20    7   20 1
@<TRIPOS>MOLECULE
dimethylamine
   10     9     0     0     0
SMALL
NO_CHARGES

@<TRIPOS>ATOM
      1 C1          1.0277    0.1348    0.3510 C.3       1 <0>         0.0000
      2 C2          2.3857    0.4585    2.3034 C.3       1 <0>         0.0000
      3 N1          1.0302    0.2824    1.8002 N.3       1 <0>         0.0000
      4 H1          1.6257   -0.7330    0.0608 H         1 <0>         0.0000
      5 H2          1.4498    1.0265   -0.1204 H         1 <0>         0.0000
      6 H3          0.0062   -0.0039   -0.0131 H         1 <0>         0.0000
      7 H4          3.0004   -0.4053    2.0373 H         1 <0>         0.0000
      8 H5          2.3744    0.5605    3.3920 H         1 <0>         0.0000
      9 H6          2.8354    1.3568    1.8719 H         1 <0>         0.0000
     10 H7          0.4693    1.0948    2.0556 H         1 <0>         0.0000
@<TRIPOS>BOND
     1    1    3 1
     2    2    3 1
     3    1    4 1
     4    1    5 1
     5    1    6 1
     6    2    7 1
     7    2    8 1
     8    2    9 1
     9    3   10 1
@<TRIPOS>MOLECULE
diethylamine
   16    15     0     0     0
SMALL
NO_CHARGES

@<TRIPOS>ATOM
      1 C1          1.5828   -1.2394    2.8915 C.3       1 <0>         0.0000
      2 C2          3.1009   -1.3004   -1.7161 C.3       1 <0>         0.0000
      3 C3          1.2109   -0.9764    1.4719 C.3       1 <0>         0.0000
      4 C4          1.9593   -0.9912   -0.8085 C.3       1 <0>         0.0000
      5 N1          2.3152   -1.2363    0.5901 N.3       1 <0>         0.0000
      6 H1          1.8780   -2.2851    3.0308 H         1 <0>         0.0000
      7 H2          2.4043   -0.5872    3.2070 H         1 <0>         0.0000
      8 H3          0.7235   -1.0413    3.5433 H         1 <0>         0.0000
      9 H4          3.9680   -0.6736   -1.4810 H         1 <0>         0.0000
     10 H5          3.3863   -2.3552   -1.6388 H         1 <0>         0.0000
     11 H6          2.8130   -1.1027   -2.7556 H         1 <0>         0.0000
     12 H7          0.9172    0.0693    1.3399 H         1 <0>         0.0000
     13 H8          0.3800   -1.6175    1.1633 H         1 <0>         0.0000
     14 H9          1.0971   -1.6205   -1.0488 H         1 <0>         0.0000
     15 H10         1.6654    0.0587   -0.8985 H         1 <0>         0.0000
     16 H11         3.1109   -0.6341    0.8301 H         1 <0>         0.0000
@<TRIPOS>BOND
     1    1    3 1
     2    2    4 1
     3    3    5 1
     4    4    5 1
     5    1    6 1
     6    1    7 1
     7    1    8 1
     8    2    9 1
     9    2   10 1
    10    2   11 1
    11    3   12 1
    12    3   13 1
    13    4   14 1
    14    4   15 1
    15    5   16 1
@<TRIPOS>MOLECULE
di-n-propylamine
   22    21     0     0     0
SMALL
NO_CHARGES

@<TRIPOS>ATOM
      1 C1          1.0976    2.1286    0.4771 C.3       1 <0>         0.0000
      2 C2          5.5654    1.0137   -5.4076 C.3       1 <0>         0.0000
      3 C3          1.3094    1.3611   -0.8201 C.3       1 <0>         0.0000
      4 C4          4.2504    0.6556   -4.7298 C.3       1 <0>         0.0000
      5 C5          2.6189    1.7221   -1.5111 C.3       1 <0>         0.0000
      6 C6          4.0584    1.3745   -3.3999 C.3       1 <0>         0.0000
      7 N1          2.8015    1.0088   -2.7448 N.3       1 <0>         0.0000
      8 H1          1.9092    1.9333    1.1853 H         1 <0>         0.0000
      9 H2          1.0740    3.2049    0.2782 H         1 <0>         0.0000
     10 H3          0.1511    1.8546    0.9529 H         1 <0>         0.0000
     11 H4          5.6262    2.0892   -5.6021 H         1 <0>         0.0000
     12 H5          6.4077    0.7381   -4.7648 H         1 <0>         0.0000
     13 H6          5.6816    0.4841   -6.3582 H         1 <0>         0.0000
     14 H7          0.4779    1.5840   -1.4988 H         1 <0>         0.0000
     15 H8          1.2782    0.2851   -0.6112 H         1 <0>         0.0000
     16 H9          4.2304   -0.4261   -4.5536 H         1 <0>         0.0000
     17 H10         3.4207    0.8894   -5.4074 H         1 <0>         0.0000
     18 H11         2.6325    2.7893   -1.7536 H         1 <0>         0.0000
     19 H12         3.4792    1.5076   -0.8693 H         1 <0>         0.0000
     20 H13         4.8669    1.1101   -2.7111 H         1 <0>         0.0000
     21 H14         4.0642    2.4612   -3.5311 H         1 <0>         0.0000
     22 H15         2.8109   -0.0030   -2.5723 H         1 <0>         0.0000
@<TRIPOS>BOND
     1    1    3 1
     2    2    4 1
     3    3    5 1
     4    4    6 1
     5    5    7 1
     6    6    7 1
     7    1    8 1
     8    1    9 1
     9    1   10 1
    10    2   11 1
    11    2   12 1
    12    2   13 1
    13    3   14 1
    14    3   15 1
    15    4   16 1
    16    4   17 1
    17    5   18 1
    18    5   19 1
    19    6   20 1
    20    6   21 1
    21    7   22 1
@<TRIPOS>MOLECULE
diisopropylamine
   22    21     0     0     0
SMALL
NO_CHARGES

@<TRIPOS>ATOM
      1 C1          1.5602    0.7002    2.5783 C.3       1 <0>         0.0000
      2 C2          0.2583   -1.4395    2.8478 C.3       1 <0>         0.0000
      3 C3          1.4260   -1.0842   -1.1062 C.3       1 <0>         0.0000
      4 C4          3.8450   -1.0259   -0.4055 C.3       1 <0>         0.0000
      5 C5          0.9766   -0.5163    1.8745 C.3       1 <0>         0.0000
      6 C6          2.4184   -0.6430   -0.0401 C.3       1 <0>         0.0000
      7 N1          2.0725   -1.2697    1.2178 N.3       1 <0>         0.0000
      8 H1          2.2636    0.3978    3.3609 H         1 <0>         0.0000
      9 H2          2.0910    1.3524    1.8757 H         1 <0>         0.0000
     10 H3          0.7683    1.2957    3.0458 H         1 <0>         0.0000
     11 H4          0.9397   -1.7789    3.6357 H         1 <0>         0.0000
     12 H5         -0.1305   -2.3236    2.3319 H         1 <0>         0.0000
     13 H6         -0.5816   -0.9320    3.3353 H         1 <0>         0.0000
     14 H7          1.4720   -2.1676   -1.2573 H         1 <0>         0.0000
     15 H8          0.3988   -0.8214   -0.8297 H         1 <0>         0.0000
     16 H9          1.6433   -0.5987   -2.0639 H         1 <0>         0.0000
     17 H10         3.9328   -2.1090   -0.5448 H         1 <0>         0.0000
     18 H11         4.5430   -0.7280    0.3837 H         1 <0>         0.0000
     19 H12         4.1614   -0.5475   -1.3392 H         1 <0>         0.0000
     20 H13         0.2770   -0.1903    1.0971 H         1 <0>         0.0000
     21 H14         2.3549    0.4424    0.0940 H         1 <0>         0.0000
     22 H15         2.8670   -1.2675    1.8434 H         1 <0>         0.0000
@<TRIPOS>BOND
     1    1    5 1
     2    2    5 1
     3    3    6 1
     4    4    6 1
     5    5    7 1
     6    6    7 1
     7    1    8 1
     8    1    9 1
     9    1   10 1
    10    2   11 1
    11    2   12 1
    12    2   13 1
    13    3   14 1
    14    3   15 1
    15    3   16 1
    16    4   17 1
    17    4   18 1
    18    4   19 1
    19    5   20 1
    20    6   21 1
    21    7   22 1
@<TRIPOS>MOLECULE
trimethylamine
   13    12     0     0     0
SMALL
NO_CHARGES

@<TRIPOS>ATOM
      1 C1         -0.2717   -0.2549    1.0309 C.3       1 <0>         0.0000
      2 C2          1.7513    0.6707    1.9381 C.3       1 <0>         0.0000
      3 C3          1.6567   -1.6543    1.3398 C.3       1 <0>         0.0000
      4 N1          0.9013   -0.5170    1.8640 N.3       1 <0>         0.0000
      5 H1         -0.9027   -1.1460    0.9795 H         1 <0>         0.0000
      6 H2          0.0373    0.0164    0.0177 H         1 <0>         0.0000
      7 H3         -0.8574    0.5673    1.4506 H         1 <0>         0.0000
      8 H4          2.6259    0.4685    2.5619 H         1 <0>         0.0000
      9 H5          1.1956    1.5068    2.3715 H         1 <0>         0.0000
     10 H6          2.0903    0.9559    0.9386 H         1 <0>         0.0000
     11 H7          2.5317   -1.8451    1.9665 H         1 <0>         0.0000
     12 H8          1.9925   -1.4473    0.3201 H         1 <0>         0.0000
     13 H9          1.0305   -2.5505    1.3275 H         1 <0>         0.0000
@<TRIPOS>BOND
     1    1    4 1
     2    2    4 1
     3    3    4 1
     4    1    5 1
     5    1    6 1
     6    1    7 1
     7    2    8 1
     8    2    9 1
     9    2   10 1
    10    3   11 1
    11    3   12 1
    12    3   13 1
@<TRIPOS>MOLECULE
triethylamine
   22    21     0     0     0
SMALL
NO_CHARGES

@<TRIPOS>ATOM
      1 C1         -1.0862    0.8639    1.5853 C.3       1 <0>         0.0000
      2 C2          2.9528    0.4204    2.7846 C.3       1 <0>         0.0000
      3 C3          0.8214   -2.8889    1.3141 C.3       1 <0>         0.0000
      4 C4         -0.2717   -0.2549    1.0309 C.3       1 <0>         0.0000
      5 C5          1.7513    0.6707    1.9381 C.3       1 <0>         0.0000
      6 C6          1.6567   -1.6543    1.3398 C.3       1 <0>         0.0000
      7 N1          0.9013   -0.5170    1.8640 N.3       1 <0>         0.0000
      8 H1         -1.4432    0.6253    2.5930 H         1 <0>         0.0000
      9 H2         -0.5040    1.7912    1.6187 H         1 <0>         0.0000
     10 H3         -1.9621    1.0366    0.9486 H         1 <0>         0.0000
     11 H4          2.6622    0.1576    3.8075 H         1 <0>         0.0000
     12 H5          3.5649   -0.3852    2.3648 H         1 <0>         0.0000
     13 H6          3.5698    1.3258    2.8306 H         1 <0>         0.0000
     14 H7          0.4832   -3.1530    2.3220 H         1 <0>         0.0000
     15 H8         -0.0502   -2.7569    0.6638 H         1 <0>         0.0000
     16 H9          1.4105   -3.7278    0.9247 H         1 <0>         0.0000
     17 H10         0.0815   -0.0101    0.0246 H         1 <0>         0.0000
     18 H11        -0.8594   -1.1764    0.9835 H         1 <0>         0.0000
     19 H12         2.0486    0.9326    0.9182 H         1 <0>         0.0000
     20 H13         1.1495    1.4861    2.3501 H         1 <0>         0.0000
     21 H14         1.9909   -1.3963    0.3304 H         1 <0>         0.0000
     22 H15         2.5349   -1.7933    1.9771 H         1 <0>         0.0000
@<TRIPOS>BOND
     1    1    4 1
     2    2    5 1
     3    3    6 1
     4    4    7 1
     5    5    7 1
     6    6    7 1
     7    1    8 1
     8    1    9 1
     9    1   10 1
    10    2   11 1
    11    2   12 1
    12    2   13 1
    13    3   14 1
    14    3   15 1
    15    3   16 1
    16    4   17 1
    17    4   18 1
    18    5   19 1
    19    5   20 1
    20    6   21 1
    21    6   22 1
@<TRIPOS>MOLECULE
nitromethane
    7     6     0     0     0
SMALL
NO_CHARGES

@<TRIPOS>ATOM
      1 C1         -0.5250   -0.7555    0.5873 C.3       1 <0>         0.0000
      2 N1         -1.8333   -0.9731   -0.0158 N.pl3     1 <0>         0.0000
      3 O1         -2.3095   -0.0741   -0.7435 O.3       1 <0>         0.0000
      4 O2         -2.4132   -2.0586    0.2080 O.2       1 <0>         0.0000
      5 H1         -0.6732   -0.2746    1.5558 H         1 <0>         0.0000
      6 H2          0.0550   -0.1137   -0.0783 H         1 <0>         0.0000
      7 H3         -0.0393   -1.7254    0.7077 H         1 <0>         0.0000
@<TRIPOS>BOND
     1    1    2 1
     2    2    3 1
     3    2    4 2
     4    1    5 1
     5    1    6 1
     6    1    7 1
@<TRIPOS>MOLECULE
nitroethane
   10     9     0     0     0
SMALL
NO_CHARGES

@<TRIPOS>ATOM
      1 C1          0.2391    0.2403    1.0420 C.3       1 <0>         0.0000
      2 C2          1.1261   -0.8170    1.6638 C.3       1 <0>         0.0000
      3 N1          2.3767   -0.9039    0.9079 N.pl3     1 <0>         0.0000
      4 O1          2.4361   -1.7143   -0.0387 O.3       1 <0>         0.0000
      5 O2          3.3126   -0.1486    1.2398 O.2       1 <0>         0.0000
      6 H1          0.7116    1.2286    1.0733 H         1 <0>         0.0000
      7 H2          0.0160    0.0100   -0.0058 H         1 <0>         0.0000
      8 H3         -0.7103    0.3031    1.5836 H         1 <0>         0.0000
      9 H4          0.6538   -1.8025    1.6321 H         1 <0>         0.0000
     10 H5          1.3844   -0.5686    2.6966 H         1 <0>         0.0000
@<TRIPOS>BOND
     1    1    2 1
     2    2    3 1
     3    3    4 1
     4    3    5 2
     5    1    6 1
     6    1    7 1
     7    1    8 1
     8    2    9 1
     9    2   10 1
@<TRIPOS>MOLECULE
1-nitropropane
   13    12     0     0     0
SMALL
NO_CHARGES

@<TRIPOS>ATOM
      1 C1          1.0421    0.0282   -0.3332 C.3       1 <0>         0.0000
      2 C2          1.4375    1.4520   -0.6967 C.3       1 <0>         0.0000
      3 C3          2.8929    1.5602   -1.1253 C.3       1 <0>         0.0000
      4 N1          3.2102    2.9560   -1.4296 N.pl3     1 <0>         0.0000
      5 O1          3.6401    3.6763   -0.5058 O.3       1 <0>         0.0000
      6 O2          3.0507    3.3485   -2.6033 O.2       1 <0>         0.0000
      7 H1          1.1927   -0.6488   -1.1802 H         1 <0>         0.0000
      8 H2          1.6530   -0.3313    0.5007 H         1 <0>         0.0000
      9 H3         -0.0079   -0.0285   -0.0297 H         1 <0>         0.0000
     10 H4          1.2731    2.0973    0.1737 H         1 <0>         0.0000
     11 H5          0.7834    1.8130   -1.4987 H         1 <0>         0.0000
     12 H6          3.5554    1.2328   -0.3185 H         1 <0>         0.0000
     13 H7          3.0995    0.9530   -2.0119 H         1 <0>         0.0000
@<TRIPOS>BOND
     1    1    2 1
     2    2    3 1
     3    3    4 1
     4    4    5 1
     5    4    6 2
     6    1    7 1
     7    1    8 1
     8    1    9 1
     9    2   10 1
    10    2   11 1
    11    3   12 1
    12    3   13 1
@<TRIPOS>MOLECULE
2-nitropropane
   13    12     0     0     0
SMALL
NO_CHARGES

@<TRIPOS>ATOM
      1 C1         -0.5137   -0.3855    0.8876 C.3       1 <0>         0.0000
      2 C2          1.0239    0.8723    2.4396 C.3       1 <0>         0.0000
      3 C3          0.4302   -0.4776    2.0742 C.3       1 <0>         0.0000
      4 N1          1.5275   -1.3832    1.7191 N.pl3     1 <0>         0.0000
      5 O1          1.6800   -2.4140    2.4029 O.3       1 <0>         0.0000
      6 O2          2.2370   -1.0802    0.7401 O.2       1 <0>         0.0000
      7 H1         -0.0066    0.0382    0.0151 H         1 <0>         0.0000
      8 H2         -0.9042   -1.3715    0.6129 H         1 <0>         0.0000
      9 H3         -1.3720    0.2514    1.1271 H         1 <0>         0.0000
     10 H4          1.5493    1.3064    1.5822 H         1 <0>         0.0000
     11 H5          1.7371    0.7762    3.2644 H         1 <0>         0.0000
     12 H6          0.2446    1.5815    2.7394 H         1 <0>         0.0000
     13 H7         -0.0924   -0.9028    2.9373 H         1 <0>         0.0000
@<TRIPOS>BOND
     1    1    3 1
     2    2    3 1
     3    3    4 1
     4    4    5 1
     5    4    6 2
     6    1    7 1
     7    1    8 1
     8    1    9 1
     9    2   10 1
    10    2   11 1
    11    2   12 1
    12    3   13 1
@<TRIPOS>MOLECULE
1-nitrobutane
   16    15     0     0     0
SMALL
NO_CHARGES

@<TRIPOS>ATOM
      1 C1         -0.5191    0.9399   -0.2129 C.3       1 <0>         0.0000
      2 C2         -1.0731    1.5381    1.0709 C.3       1 <0>         0.0000
      3 C3         -1.7896    2.8637    0.8059 C.3       1 <0>         0.0000
      4 C4         -2.3977    3.4556    2.0694 C.3       1 <0>         0.0000
      5 N1         -3.0738    4.7119    1.7445 N.pl3     1 <0>         0.0000
      6 O1         -2.4247    5.7728    1.8462 O.3       1 <0>         0.0000
      7 O2         -4.2611    4.6548    1.3646 O.2       1 <0>         0.0000
      8 H1          0.1805    1.6293   -0.6963 H         1 <0>         0.0000
      9 H2          0.0152    0.0091    0.0022 H         1 <0>         0.0000
     10 H3         -1.3237    0.7141   -0.9201 H         1 <0>         0.0000
     11 H4         -1.7681    0.8248    1.5288 H         1 <0>         0.0000
     12 H5         -0.2493    1.6878    1.7778 H         1 <0>         0.0000
     13 H6         -1.0855    3.5797    0.3650 H         1 <0>         0.0000
     14 H7         -2.5894    2.7018    0.0734 H         1 <0>         0.0000
     15 H8         -1.6366    3.6540    2.8302 H         1 <0>         0.0000
     16 H9         -3.1411    2.7732    2.4925 H         1 <0>         0.0000
@<TRIPOS>BOND
     1    1    2 1
     2    2    3 1
     3    3    4 1
     4    4    5 1
     5    5    6 1
     6    5    7 2
     7    1    8 1
     8    1    9 1
     9    1   10 1
    10    2   11 1
    11    2   12 1
    12    3   13 1
    13    3   14 1
    14    4   15 1
    15    4   16 1
@<TRIPOS>MOLECULE
1-nitropentane
   19    18     0     0     0
SMALL
NO_CHARGES

@<TRIPOS>ATOM
      1 C1          0.0754   -0.7107    0.8665 C.3       1 <0>         0.0000
      2 C2          1.3441   -0.4153    1.6505 C.3       1 <0>         0.0000
      3 C3          2.5932   -0.6236    0.7946 C.3       1 <0>         0.0000
      4 C4          3.8685   -0.3582    1.5969 C.3       1 <0>         0.0000
      5 C5          5.1063   -0.5265    0.7269 C.3       1 <0>         0.0000
      6 N1          6.2986   -0.2286    1.5243 N.pl3     1 <0>         0.0000
      7 O1          6.7262    0.9429    1.5247 O.3       1 <0>         0.0000
      8 O2          6.8117   -1.1605    2.1750 O.2       1 <0>         0.0000
      9 H1          0.0180   -0.0681   -0.0175 H         1 <0>         0.0000
     10 H2          0.0547   -1.7525    0.5313 H         1 <0>         0.0000
     11 H3         -0.8145   -0.5282    1.4773 H         1 <0>         0.0000
     12 H4          1.3826   -1.0681    2.5304 H         1 <0>         0.0000
     13 H5          1.3097    0.6183    2.0142 H         1 <0>         0.0000
     14 H6          2.5596    0.0455   -0.0739 H         1 <0>         0.0000
     15 H7          2.6081   -1.6512    0.4108 H         1 <0>         0.0000
     16 H8          3.9132   -1.0454    2.4521 H         1 <0>         0.0000
     17 H9          3.8352    0.6578    2.0119 H         1 <0>         0.0000
     18 H10         5.1049    0.1624   -0.1225 H         1 <0>         0.0000
     19 H11         5.2083   -1.5529    0.3627 H         1 <0>         0.0000
@<TRIPOS>BOND
     1    1    2 1
     2    2    3 1
     3    3    4 1
     4    4    5 1
     5    5    6 1
     6    6    7 1
     7    6    8 2
     8    1    9 1
     9    1   10 1
    10    1   11 1
    11    2   12 1
    12    2   13 1
    13    3   14 1
    14    3   15 1
    15    4   16 1
    16    4   17 1
    17    5   18 1
    18    5   19 1
@<TRIPOS>MOLECULE
n-butylacetamide
   21    20     0     0     0
SMALL
NO_CHARGES

@<TRIPOS>ATOM
      1 C1         -0.8195    4.9246    3.4181 C.2       1 <0>         0.0000
      2 C2          0.2563    5.1135    4.4356 C.3       1 <0>         0.0000
      3 C3         -0.4285    1.0149   -0.0920 C.3       1 <0>         0.0000
      4 C4         -0.9124    1.5171    1.2594 C.3       1 <0>         0.0000
      5 C5         -1.8134    2.7450    1.1091 C.3       1 <0>         0.0000
      6 C6         -2.3629    3.2356    2.4445 C.3       1 <0>         0.0000
      7 N1         -1.3228    3.6343    3.3520 N.am      1 <0>         0.0000
      8 O1         -1.1785    5.8762    2.7345 O.2       1 <0>         0.0000
      9 H1          1.2615    4.9286    4.0241 H         1 <0>         0.0000
     10 H2          0.2873    6.1425    4.8285 H         1 <0>         0.0000
     11 H3          0.1834    4.4663    5.3242 H         1 <0>         0.0000
     12 H4          0.1239    1.7951   -0.6255 H         1 <0>         0.0000
     13 H5          0.2374    0.1562    0.0392 H         1 <0>         0.0000
     14 H6         -1.2695    0.6997   -0.7179 H         1 <0>         0.0000
     15 H7         -1.4600    0.7138    1.7658 H         1 <0>         0.0000
     16 H8         -0.0424    1.7589    1.8801 H         1 <0>         0.0000
     17 H9         -1.2557    3.5522    0.6183 H         1 <0>         0.0000
     18 H10        -2.6579    2.4927    0.4563 H         1 <0>         0.0000
     19 H11        -2.9597    2.4616    2.9372 H         1 <0>         0.0000
     20 H12        -3.0022    4.1101    2.2873 H         1 <0>         0.0000
     21 H13        -0.9345    2.9315    3.9804 H         1 <0>         0.0000
@<TRIPOS>BOND
     1    1    2 1
     2    1    7 am
     3    1    8 2
     4    3    4 1
     5    4    5 1
     6    5    6 1
     7    6    7 1
     8    2    9 1
     9    2   10 1
    10    2   11 1
    11    3   12 1
    12    3   13 1
    13    3   14 1
    14    4   15 1
    15    4   16 1
    16    5   17 1
    17    5   18 1
    18    6   19 1
    19    6   20 1
    20    7   21 1
@<TRIPOS>MOLECULE
N,N-dimethylformamide
   12    11     0     0     0
SMALL
NO_CHARGES

@<TRIPOS>ATOM
      1 C1          2.8181   -1.4424    0.2525 C.2       1 <0>         0.0000
      2 C2          0.9276   -0.0771   -0.5743 C.3       1 <0>         0.0000
      3 C3          0.7832   -2.5563   -0.6072 C.3       1 <0>         0.0000
      4 N1          1.5475   -1.3611   -0.2934 N.am      1 <0>         0.0000
      5 O1          3.4459   -2.4573    0.5336 O.2       1 <0>         0.0000
      6 H1          3.2559   -0.4462    0.4290 H         1 <0>         0.0000
      7 H2          1.1719    0.2439   -1.5903 H         1 <0>         0.0000
      8 H3          1.2874    0.6784    0.1295 H         1 <0>         0.0000
      9 H4         -0.1591   -0.1535   -0.4811 H         1 <0>         0.0000
     10 H5          0.1810   -2.8543    0.2550 H         1 <0>         0.0000
     11 H6          1.4561   -3.3779   -0.8673 H         1 <0>         0.0000
     12 H7          0.1171   -2.3677   -1.4534 H         1 <0>         0.0000
@<TRIPOS>BOND
     1    1    4 am
     2    1    5 2
     3    2    4 1
     4    3    4 1
     5    1    6 1
     6    2    7 1
     7    2    8 1
     8    2    9 1
     9    3   10 1
    10    3   11 1
    11    3   12 1
@<TRIPOS>MOLECULE
aceticacid
    8     7     0     0     0
SMALL
NO_CHARGES

@<TRIPOS>ATOM
      1 C1         -1.6530    0.6105    1.1990 C.2       1 <0>         0.0000
      2 C2         -1.0284    0.3448   -0.1340 C.3       1 <0>         0.0000
      3 O1         -2.6517    0.0533    1.6296 O.2       1 <0>         0.0000
      4 O2         -0.9598    1.5616    1.8714 O.3       1 <0>         0.0000
      5 H1         -1.4624    1.0088   -0.8857 H         1 <0>         0.0000
      6 H2          0.0533    0.4881   -0.0723 H         1 <0>         0.0000
      7 H3         -1.2259   -0.6905   -0.4265 H         1 <0>         0.0000
      8 H4         -0.1896    1.8857    1.3576 H         1 <0>         0.0000
@<TRIPOS>BOND
     1    1    2 1
     2    1    3 2
     3    1    4 1
     4    2    5 1
     5    2    6 1
     6    2    7 1
     7    4    8 1
@<TRIPOS>MOLECULE
propanoicacid
   11    10     0     0     0
SMALL
NO_CHARGES

@<TRIPOS>ATOM
      1 C1         -0.9082   -1.5561   -2.1106 C.2       1 <0>         0.0000
      2 C2          0.7690   -0.5809   -0.5200 C.3       1 <0>         0.0000
      3 C3          0.3923   -0.8062   -1.9738 C.3       1 <0>         0.0000
      4 O1         -1.6174   -1.9436   -1.1942 O.2       1 <0>         0.0000
      5 O2         -1.1977   -1.7502   -3.4230 O.3       1 <0>         0.0000
      6 H1          0.8761   -1.5384   -0.0011 H         1 <0>         0.0000
      7 H2          1.7173   -0.0394   -0.4388 H         1 <0>         0.0000
      8 H3          0.0031    0.0058   -0.0018 H         1 <0>         0.0000
      9 H4          0.2897    0.1613   -2.4762 H         1 <0>         0.0000
     10 H5          1.1801   -1.3852   -2.4671 H         1 <0>         0.0000
     11 H6         -2.0410   -2.2367   -3.5433 H         1 <0>         0.0000
@<TRIPOS>BOND
     1    1    3 1
     2    1    4 2
     3    1    5 1
     4    2    3 1
     5    2    6 1
     6    2    7 1
     7    2    8 1
     8    3    9 1
     9    3   10 1
    10    5   11 1
@<TRIPOS>MOLECULE
butanoicacid
   14    13     0     0     0
SMALL
NO_CHARGES

@<TRIPOS>ATOM
      1 C1          0.3282    0.2592    3.5153 C.2       1 <0>         0.0000
      2 C2         -1.2615   -1.9835    0.7852 C.3       1 <0>         0.0000
      3 C3         -0.7524   -0.3453    2.6537 C.3       1 <0>         0.0000
      4 C4         -0.1903   -1.3680    1.6737 C.3       1 <0>         0.0000
      5 O1          1.5220    0.0259    3.3744 O.2       1 <0>         0.0000
      6 O2         -0.1577    1.1129    4.4497 O.3       1 <0>         0.0000
      7 H1         -1.7779   -1.2199    0.1955 H         1 <0>         0.0000
      8 H2         -2.0054   -2.5207    1.3819 H         1 <0>         0.0000
      9 H3         -0.8087   -2.6954    0.0877 H         1 <0>         0.0000
     10 H4         -1.3176    0.4380    2.1369 H         1 <0>         0.0000
     11 H5         -1.4650   -0.8311    3.3313 H         1 <0>         0.0000
     12 H6          0.2955   -2.1703    2.2412 H         1 <0>         0.0000
     13 H7          0.5794   -0.9078    1.0429 H         1 <0>         0.0000
     14 H8          0.5155    1.5425    5.0190 H         1 <0>         0.0000
@<TRIPOS>BOND
     1    1    3 1
     2    1    5 2
     3    1    6 1
     4    2    4 1
     5    3    4 1
     6    2    7 1
     7    2    8 1
     8    2    9 1
     9    3   10 1
    10    3   11 1
    11    4   12 1
    12    4   13 1
    13    6   14 1
@<TRIPOS>MOLECULE
pentanoicacid
   17    16     0     0     0
SMALL
NO_CHARGES

@<TRIPOS>ATOM
      1 C1          1.6524   -1.7675    3.5067 C.2       1 <0>         0.0000
      2 C2         -2.8811   -0.8826    1.4178 C.3       1 <0>         0.0000
      3 C3          0.8489   -0.8488    2.6143 C.3       1 <0>         0.0000
      4 C4         -1.4435   -0.4115    1.5738 C.3       1 <0>         0.0000
      5 C5         -0.6037   -1.3074    2.4860 C.3       1 <0>         0.0000
      6 O1          1.2197   -2.7566    4.0816 O.2       1 <0>         0.0000
      7 O2          2.9470   -1.3643    3.5965 O.3       1 <0>         0.0000
      8 H1         -2.9013   -1.8937    0.9986 H         1 <0>         0.0000
      9 H2         -3.4000   -0.9132    2.3802 H         1 <0>         0.0000
     10 H3         -3.4391   -0.2253    0.7435 H         1 <0>         0.0000
     11 H4          0.8788    0.1579    3.0455 H         1 <0>         0.0000
     12 H5          1.3299   -0.8350    1.6309 H         1 <0>         0.0000
     13 H6         -1.4526    0.6012    1.9944 H         1 <0>         0.0000
     14 H7         -0.9739   -0.3397    0.5859 H         1 <0>         0.0000
     15 H8         -1.0685   -1.3182    3.4801 H         1 <0>         0.0000
     16 H9         -0.6356   -2.3414    2.1203 H         1 <0>         0.0000
     17 H10         3.5177   -1.9283    4.1614 H         1 <0>         0.0000
@<TRIPOS>BOND
     1    1    3 1
     2    1    6 2
     3    1    7 1
     4    2    4 1
     5    3    5 1
     6    4    5 1
     7    2    8 1
     8    2    9 1
     9    2   10 1
    10    3   11 1
    11    3   12 1
    12    4   13 1
    13    4   14 1
    14    5   15 1
    15    5   16 1
    16    7   17 1
@<TRIPOS>MOLECULE
3-methylbutanoicacid
   17    16     0     0     0
SMALL
NO_CHARGES

@<TRIPOS>ATOM
      1 C1         -1.8485   -0.4578    1.2039 C.2       1 <0>         0.0000
      2 C2          1.0711    0.0457    1.7142 C.3       1 <0>         0.0000
      3 C3          1.4318    0.2953   -0.7503 C.3       1 <0>         0.0000
      4 C4         -0.9198    0.1609    0.1859 C.3       1 <0>         0.0000
      5 C5          0.5338   -0.3162    0.3282 C.3       1 <0>         0.0000
      6 O1         -1.7503   -1.5774    1.6832 O.2       1 <0>         0.0000
      7 O2         -2.8146    0.4293    1.5550 O.3       1 <0>         0.0000
      8 H1          1.0547    1.1301    1.8668 H         1 <0>         0.0000
      9 H2          2.1025   -0.2998    1.8441 H         1 <0>         0.0000
     10 H3          0.4592   -0.4099    2.5000 H         1 <0>         0.0000
     11 H4          1.4313    1.3892   -0.6945 H         1 <0>         0.0000
     12 H5          2.4655   -0.0471   -0.6323 H         1 <0>         0.0000
     13 H6          1.1022    0.0082   -1.7536 H         1 <0>         0.0000
     14 H7         -1.2895   -0.0739   -0.8193 H         1 <0>         0.0000
     15 H8         -0.9743    1.2466    0.3280 H         1 <0>         0.0000
     16 H9          0.5715   -1.4082    0.2266 H         1 <0>         0.0000
     17 H10        -3.4181    0.0618    2.2354 H         1 <0>         0.0000
@<TRIPOS>BOND
     1    1    4 1
     2    1    6 2
     3    1    7 1
     4    2    5 1
     5    3    5 1
     6    4    5 1
     7    2    8 1
     8    2    9 1
     9    2   10 1
    10    3   11 1
    11    3   12 1
    12    3   13 1
    13    4   14 1
    14    4   15 1
    15    5   16 1
    16    7   17 1
@<TRIPOS>MOLECULE
hexanoicacid
   20    19     0     0     0
SMALL
NO_CHARGES

@<TRIPOS>ATOM
      1 C1          1.8843   -2.4290   -4.5140 C.2       1 <0>         0.0000
      2 C2         -0.0300    2.7185   -1.1894 C.3       1 <0>         0.0000
      3 C3          2.1156   -1.2087   -3.6520 C.3       1 <0>         0.0000
      4 C4         -0.2814    1.4698   -2.0194 C.3       1 <0>         0.0000
      5 C5          0.8037   -0.5226   -3.2726 C.3       1 <0>         0.0000
      6 C6          1.0009    0.7710   -2.4773 C.3       1 <0>         0.0000
      7 O1          0.7924   -2.8562   -4.8621 O.2       1 <0>         0.0000
      8 O2          3.0575   -3.0190   -4.8634 O.3       1 <0>         0.0000
      9 H1          0.5490    3.4445   -1.7691 H         1 <0>         0.0000
     10 H2         -0.9721    3.1927   -0.8972 H         1 <0>         0.0000
     11 H3          0.5394    2.4900   -0.2838 H         1 <0>         0.0000
     12 H4          2.6476   -1.5334   -2.7518 H         1 <0>         0.0000
     13 H5          2.7463   -0.5095   -4.2121 H         1 <0>         0.0000
     14 H6         -0.8618    0.7615   -1.4157 H         1 <0>         0.0000
     15 H7         -0.9071    1.7233   -2.8822 H         1 <0>         0.0000
     16 H8          0.1670   -1.2178   -2.7125 H         1 <0>         0.0000
     17 H9          0.2474   -0.2779   -4.1867 H         1 <0>         0.0000
     18 H10         1.5846    1.4685   -3.0911 H         1 <0>         0.0000
     19 H11         1.6127    0.5544   -1.5928 H         1 <0>         0.0000
     20 H12         2.9670   -3.8213   -5.4212 H         1 <0>         0.0000
@<TRIPOS>BOND
     1    1    3 1
     2    1    7 2
     3    1    8 1
     4    2    4 1
     5    3    5 1
     6    4    6 1
     7    5    6 1
     8    2    9 1
     9    2   10 1
    10    2   11 1
    11    3   12 1
    12    3   13 1
    13    4   14 1
    14    4   15 1
    15    5   16 1
    16    5   17 1
    17    6   18 1
    18    6   19 1
    19    8   20 1
@<TRIPOS>MOLECULE
water
    3     2     0     0     0
SMALL
NO_CHARGES

@<TRIPOS>ATOM
      1 O1         -0.2947   -0.2183    0.1542 O.3       1 <0>         0.0000
      2 H1         -0.0173    0.6747    0.4085 H         1 <0>         0.0000
      3 H2          0.3120   -0.4565   -0.5627 H         1 <0>         0.0000
@<TRIPOS>BOND
     1    1    2 1
     2    1    3 1
@<TRIPOS>MOLECULE
methanol
    6     5     0     0     0
SMALL
NO_CHARGES

@<TRIPOS>ATOM
      1 C1          0.2832    0.7683    0.7238 C.3       1 <0>         0.0000
      2 O1         -0.3112    2.0013    0.3621 O.3       1 <0>         0.0000
      3 H1         -0.0653    0.4722    1.7163 H         1 <0>         0.0000
      4 H2          1.3711    0.8735    0.7244 H         1 <0>         0.0000
      5 H3         -0.0069    0.0068   -0.0039 H         1 <0>         0.0000
      6 H4          0.0219    2.2303   -0.5224 H         1 <0>         0.0000
@<TRIPOS>BOND
     1    1    2 1
     2    1    3 1
     3    1    4 1
     4    1    5 1
     5    2    6 1
@<TRIPOS>MOLECULE
ethanol
    9     8     0     0     0
SMALL
NO_CHARGES

@<TRIPOS>ATOM
      1 C1          1.0616   -0.2681   -0.0006 C.3       1 <0>         0.0000
      2 C2          1.9101    0.9126   -0.4220 C.3       1 <0>         0.0000
      3 O1          1.5170    1.3236   -1.7228 O.3       1 <0>         0.0000
      4 H1          0.0022    0.0017    0.0240 H         1 <0>         0.0000
      5 H2          1.1969   -1.1069   -0.6913 H         1 <0>         0.0000
      6 H3          1.3591   -0.6222    0.9921 H         1 <0>         0.0000
      7 H4          2.9684    0.6361   -0.4446 H         1 <0>         0.0000
      8 H5          1.7730    1.7499    0.2687 H         1 <0>         0.0000
      9 H6          1.6590    0.5652   -2.3129 H         1 <0>         0.0000
@<TRIPOS>BOND
     1    1    2 1
     2    2    3 1
     3    1    4 1
     4    1    5 1
     5    1    6 1
     6    2    7 1
     7    2    8 1
     8    3    9 1
@<TRIPOS>MOLECULE
1-propanol
   12    11     0     0     0
SMALL
NO_CHARGES

@<TRIPOS>ATOM
      1 C1         -0.0035   -0.6640    0.8700 C.3       1 <0>         0.0000
      2 C2          1.2444   -0.4434    1.7060 C.3       1 <0>         0.0000
      3 C3          1.2749   -1.3494    2.9273 C.3       1 <0>         0.0000
      4 O1          2.4570   -1.0814    3.6686 O.3       1 <0>         0.0000
      5 H1         -0.0766   -1.7059    0.5423 H         1 <0>         0.0000
      6 H2         -0.8985   -0.4284    1.4543 H         1 <0>         0.0000
      7 H3          0.0009   -0.0237   -0.0177 H         1 <0>         0.0000
      8 H4          1.2990    0.6047    2.0239 H         1 <0>         0.0000
      9 H5          2.1379   -0.6194    1.0950 H         1 <0>         0.0000
     10 H6          0.4098   -1.1652    3.5724 H         1 <0>         0.0000
     11 H7          1.2804   -2.4035    2.6318 H         1 <0>         0.0000
     12 H8          2.4459   -1.6736    4.4381 H         1 <0>         0.0000
@<TRIPOS>BOND
     1    1    2 1
     2    2    3 1
     3    3    4 1
     4    1    5 1
     5    1    6 1
     6    1    7 1
     7    2    8 1
     8    2    9 1
     9    3   10 1
    10    3   11 1
    11    4   12 1
@<TRIPOS>MOLECULE
2-propanol
   12    11     0     0     0
SMALL
NO_CHARGES

@<TRIPOS>ATOM
      1 C1          1.0765    0.0499    0.1958 C.3       1 <0>         0.0000
      2 C2          2.8427    1.0382    1.6976 C.3       1 <0>         0.0000
      3 C3          1.3532    0.9191    1.4130 C.3       1 <0>         0.0000
      4 O1          0.8123    2.2184    1.1940 O.3       1 <0>         0.0000
      5 H1          1.5701    0.4471   -0.6963 H         1 <0>         0.0000
      6 H2          1.4331   -0.9713    0.3679 H         1 <0>         0.0000
      7 H3          0.0011   -0.0220   -0.0013 H         1 <0>         0.0000
      8 H4          3.3785    1.4589    0.8413 H         1 <0>         0.0000
      9 H5          3.2667    0.0547    1.9270 H         1 <0>         0.0000
     10 H6          3.0274    1.6718    2.5721 H         1 <0>         0.0000
     11 H7          0.8468    0.4961    2.2868 H         1 <0>         0.0000
     12 H8          1.2532    2.5729    0.4061 H         1 <0>         0.0000
@<TRIPOS>BOND
     1    1    3 1
     2    2    3 1
     3    3    4 1
     4    1    5 1
     5    1    6 1
     6    1    7 1
     7    2    8 1
     8    2    9 1
     9    2   10 1
    10    3   11 1
    11    4   12 1
@<TRIPOS>MOLECULE
1-butanol
   15    14     0     0     0
SMALL
NO_CHARGES

@<TRIPOS>ATOM
      1 C1          0.4039   -1.0521   -0.1122 C.3       1 <0>         0.0000
      2 C2         -0.5795   -2.0238    0.5201 C.3       1 <0>         0.0000
      3 C3         -1.9307   -1.9925   -0.1885 C.3       1 <0>         0.0000
      4 C4         -2.9047   -2.9950    0.4140 C.3       1 <0>         0.0000
      5 O1         -4.1328   -2.9264   -0.2974 O.3       1 <0>         0.0000
      6 H1          0.0153   -0.0289   -0.0876 H         1 <0>         0.0000
      7 H2          1.3640   -1.0679    0.4135 H         1 <0>         0.0000
      8 H3          0.5844   -1.3218   -1.1574 H         1 <0>         0.0000
      9 H4         -0.1611   -3.0362    0.4794 H         1 <0>         0.0000
     10 H5         -0.7076   -1.7680    1.5784 H         1 <0>         0.0000
     11 H6         -2.3650   -0.9865   -0.1342 H         1 <0>         0.0000
     12 H7         -1.8040   -2.2065   -1.2572 H         1 <0>         0.0000
     13 H8         -2.5139   -4.0145    0.3363 H         1 <0>         0.0000
     14 H9         -3.0991   -2.7668    1.4668 H         1 <0>         0.0000
     15 H10        -4.7295   -3.5752    0.1099 H         1 <0>         0.0000
@<TRIPOS>BOND
     1    1    2 1
     2    2    3 1
     3    3    4 1
     4    4    5 1
     5    1    6 1
     6    1    7 1
     7    1    8 1
     8    2    9 1
     9    2   10 1
    10    3   11 1
    11    3   12 1
    12    4   13 1
    13    4   14 1
    14    5   15 1
@<TRIPOS>MOLECULE
2-methyl-1-propanol
   15    14     0     0     0
SMALL
NO_CHARGES

@<TRIPOS>ATOM
      1 C1          0.9983   -0.3578   -0.2742 C.3       1 <0>         0.0000
      2 C2          1.1578    1.1798   -2.2511 C.3       1 <0>         0.0000
      3 C3          1.9991    1.9493   -0.0132 C.3       1 <0>         0.0000
      4 C4          1.8182    0.7470   -0.9439 C.3       1 <0>         0.0000
      5 O1          2.6754    1.5475    1.1709 O.3       1 <0>         0.0000
      6 H1         -0.0051    0.0026   -0.0230 H         1 <0>         0.0000
      7 H2          1.4754   -0.7007    0.6503 H         1 <0>         0.0000
      8 H3          0.8826   -1.2218   -0.9368 H         1 <0>         0.0000
      9 H4          0.1652    1.6031   -2.0643 H         1 <0>         0.0000
     10 H5          1.0346    0.3259   -2.9257 H         1 <0>         0.0000
     11 H6          1.7569    1.9371   -2.7683 H         1 <0>         0.0000
     12 H7          2.6000    2.7249   -0.4995 H         1 <0>         0.0000
     13 H8          1.0323    2.3812    0.2672 H         1 <0>         0.0000
     14 H9          2.8075    0.3294   -1.1709 H         1 <0>         0.0000
     15 H10         2.7651    2.3400    1.7245 H         1 <0>         0.0000
@<TRIPOS>BOND
     1    1    4 1
     2    2    4 1
     3    3    4 1
     4    3    5 1
     5    1    6 1
     6    1    7 1
     7    1    8 1
     8    2    9 1
     9    2   10 1
    10    2   11 1
    11    3   12 1
    12    3   13 1
    13    4   14 1
    14    5   15 1
@<TRIPOS>MOLECULE
2-butanol
   15    14     0     0     0
SMALL
NO_CHARGES

@<TRIPOS>ATOM
      1 C1         -1.2679   -0.2677   -1.1320 C.3       1 <0>         0.0000
      2 C2          1.0608    0.9421   -3.9925 C.3       1 <0>         0.0000
      3 C3         -0.8317    0.4447   -2.4055 C.3       1 <0>         0.0000
      4 C4          0.6395    0.1877   -2.7386 C.3       1 <0>         0.0000
      5 O1          1.4475    0.6205   -1.6478 O.3       1 <0>         0.0000
      6 H1         -1.1089   -1.3477   -1.2142 H         1 <0>         0.0000
      7 H2         -2.3265   -0.0904   -0.9181 H         1 <0>         0.0000
      8 H3         -0.6870    0.0963   -0.2786 H         1 <0>         0.0000
      9 H4          0.9007    2.0196   -3.8742 H         1 <0>         0.0000
     10 H5          2.1149    0.7666   -4.2274 H         1 <0>         0.0000
     11 H6          0.4568    0.6272   -4.8504 H         1 <0>         0.0000
     12 H7         -1.0047    1.5207   -2.2878 H         1 <0>         0.0000
     13 H8         -1.4672    0.0940   -3.2278 H         1 <0>         0.0000
     14 H9          0.8085   -0.8858   -2.8804 H         1 <0>         0.0000
     15 H10         2.3656    0.4185   -1.8865 H         1 <0>         0.0000
@<TRIPOS>BOND
     1    1    3 1
     2    2    4 1
     3    3    4 1
     4    4    5 1
     5    1    6 1
     6    1    7 1
     7    1    8 1
     8    2    9 1
     9    2   10 1
    10    2   11 1
    11    3   12 1
    12    3   13 1
    13    4   14 1
    14    5   15 1
@<TRIPOS>MOLECULE
2-methyl-2-propanol
   15    14     0     0     0
SMALL
NO_CHARGES

@<TRIPOS>ATOM
      1 C1         -0.4645   -0.0646    0.9894 C.3       1 <0>         0.0000
      2 C2          1.6273    0.6910    2.1567 C.3       1 <0>         0.0000
      3 C3          1.2036   -1.7604    1.8118 C.3       1 <0>         0.0000
      4 C4          0.5609   -0.3988    2.0719 C.3       1 <0>         0.0000
      5 O1         -0.1082   -0.4451    3.3327 O.3       1 <0>         0.0000
      6 H1         -1.2317   -0.8445    0.9253 H         1 <0>         0.0000
      7 H2         -0.9578    0.8935    1.1830 H         1 <0>         0.0000
      8 H3          0.0103   -0.0162    0.0027 H         1 <0>         0.0000
      9 H4          2.3651    0.4554    2.9322 H         1 <0>         0.0000
     10 H5          1.1816    1.6524    2.4367 H         1 <0>         0.0000
     11 H6          2.1531    0.8168    1.2047 H         1 <0>         0.0000
     12 H7          1.9391   -2.0003    2.5882 H         1 <0>         0.0000
     13 H8          0.4566   -2.5604    1.7845 H         1 <0>         0.0000
     14 H9          1.7476   -1.7592    0.8603 H         1 <0>         0.0000
     15 H10        -0.4938    0.4331    3.4699 H         1 <0>         0.0000
@<TRIPOS>BOND
     1    1    4 1
     2    2    4 1
     3    3    4 1
     4    4    5 1
     5    1    6 1
     6    1    7 1
     7    1    8 1
     8    2    9 1
     9    2   10 1
    10    2   11 1
    11    3   12 1
    12    3   13 1
    13    3   14 1
    14    5   15 1
@<TRIPOS>MOLECULE
1-pentanol
   18    17     0     0     0
SMALL
NO_CHARGES

@<TRIPOS>ATOM
      1 C1          0.8186   -0.3802    0.6691 C.3       1 <0>         0.0000
      2 C2          1.6185   -1.4417   -0.0691 C.3       1 <0>         0.0000
      3 C3          2.2938   -0.8687   -1.3148 C.3       1 <0>         0.0000
      4 C4          3.1237   -1.9294   -2.0346 C.3       1 <0>         0.0000
      5 C5          3.8336   -1.3564   -3.2530 C.3       1 <0>         0.0000
      6 O1          4.5965   -2.3862   -3.8665 O.3       1 <0>         0.0000
      7 H1          1.4582    0.4571    0.9663 H         1 <0>         0.0000
      8 H2          0.0111    0.0099    0.0414 H         1 <0>         0.0000
      9 H3          0.3713   -0.8036    1.5739 H         1 <0>         0.0000
     10 H4          0.9505   -2.2636   -0.3519 H         1 <0>         0.0000
     11 H5          2.3753   -1.8563    0.6070 H         1 <0>         0.0000
     12 H6          1.5317   -0.4729   -1.9971 H         1 <0>         0.0000
     13 H7          2.9390   -0.0288   -1.0292 H         1 <0>         0.0000
     14 H8          2.4843   -2.7645   -2.3467 H         1 <0>         0.0000
     15 H9          3.8659   -2.3597   -1.3509 H         1 <0>         0.0000
     16 H10         4.5106   -0.5456   -2.9657 H         1 <0>         0.0000
     17 H11         3.1116   -0.9763   -3.9827 H         1 <0>         0.0000
     18 H12         5.0348   -1.9896   -4.6369 H         1 <0>         0.0000
@<TRIPOS>BOND
     1    1    2 1
     2    2    3 1
     3    3    4 1
     4    4    5 1
     5    5    6 1
     6    1    7 1
     7    1    8 1
     8    1    9 1
     9    2   10 1
    10    2   11 1
    11    3   12 1
    12    3   13 1
    13    4   14 1
    14    4   15 1
    15    5   16 1
    16    5   17 1
    17    6   18 1
@<TRIPOS>MOLECULE
2-pentanol
   18    17     0     0     0
SMALL
NO_CHARGES

@<TRIPOS>ATOM
      1 C1         -0.3634    0.7825   -0.7780 C.3       1 <0>         0.0000
      2 C2         -0.7529   -2.7862   -4.3246 C.3       1 <0>         0.0000
      3 C3          0.1199    0.3162   -2.1425 C.3       1 <0>         0.0000
      4 C4         -0.5207   -1.0174   -2.5371 C.3       1 <0>         0.0000
      5 C5         -0.0767   -1.4806   -3.9284 C.3       1 <0>         0.0000
      6 O1         -0.3950   -0.4880   -4.9002 O.3       1 <0>         0.0000
      7 H1         -0.1362    0.0287   -0.0177 H         1 <0>         0.0000
      8 H2         -1.4456    0.9471   -0.7802 H         1 <0>         0.0000
      9 H3          0.1262    1.7172   -0.4869 H         1 <0>         0.0000
     10 H4         -1.8437   -2.6826   -4.3178 H         1 <0>         0.0000
     11 H5         -0.4702   -3.0674   -5.3448 H         1 <0>         0.0000
     12 H6         -0.4739   -3.5998   -3.6481 H         1 <0>         0.0000
     13 H7         -0.1180    1.0853   -2.8860 H         1 <0>         0.0000
     14 H8          1.2109    0.2118   -2.1203 H         1 <0>         0.0000
     15 H9         -0.2591   -1.7818   -1.7954 H         1 <0>         0.0000
     16 H10        -1.6117   -0.9003   -2.5183 H         1 <0>         0.0000
     17 H11         1.0097   -1.6199   -3.9459 H         1 <0>         0.0000
     18 H12        -0.0587   -0.8146   -5.7492 H         1 <0>         0.0000
@<TRIPOS>BOND
     1    1    3 1
     2    2    5 1
     3    3    4 1
     4    4    5 1
     5    5    6 1
     6    1    7 1
     7    1    8 1
     8    1    9 1
     9    2   10 1
    10    2   11 1
    11    2   12 1
    12    3   13 1
    13    3   14 1
    14    4   15 1
    15    4   16 1
    16    5   17 1
    17    6   18 1
@<TRIPOS>MOLECULE
3-pentanol
   18    17     0     0     0
SMALL
NO_CHARGES

@<TRIPOS>ATOM
      1 C1         -0.2299    0.9454    0.2524 C.3       1 <0>         0.0000
      2 C2         -2.7412   -0.2455    4.5088 C.3       1 <0>         0.0000
      3 C3         -0.4534    1.2393    1.7303 C.3       1 <0>         0.0000
      4 C4         -1.6986    0.6411    3.8403 C.3       1 <0>         0.0000
      5 C5         -1.5325    0.3415    2.3459 C.3       1 <0>         0.0000
      6 O1         -1.1462   -1.0186    2.1649 O.3       1 <0>         0.0000
      7 H1         -1.1624    1.0829   -0.3041 H         1 <0>         0.0000
      8 H2          0.5203    1.6153   -0.1791 H         1 <0>         0.0000
      9 H3          0.1039   -0.0866    0.1050 H         1 <0>         0.0000
     10 H4         -3.7105   -0.1232    4.0148 H         1 <0>         0.0000
     11 H5         -2.4584   -1.3009    4.4435 H         1 <0>         0.0000
     12 H6         -2.8711    0.0138    5.5637 H         1 <0>         0.0000
     13 H7          0.4981    1.0921    2.2559 H         1 <0>         0.0000
     14 H8         -0.7352    2.2926    1.8430 H         1 <0>         0.0000
     15 H9         -0.7427    0.4948    4.3577 H         1 <0>         0.0000
     16 H10        -1.9917    1.6886    3.9765 H         1 <0>         0.0000
     17 H11        -2.4821    0.4995    1.8209 H         1 <0>         0.0000
     18 H12        -0.2958   -1.1267    2.6182 H         1 <0>         0.0000
@<TRIPOS>BOND
     1    1    3 1
     2    2    4 1
     3    3    5 1
     4    4    5 1
     5    5    6 1
     6    1    7 1
     7    1    8 1
     8    1    9 1
     9    2   10 1
    10    2   11 1
    11    2   12 1
    12    3   13 1
    13    3   14 1
    14    4   15 1
    15    4   16 1
    16    5   17 1
    17    6   18 1
@<TRIPOS>MOLECULE
2-methyl-1-butanol
   18    17     0     0     0
SMALL
NO_CHARGES

@<TRIPOS>ATOM
      1 C1          0.9450   -0.4908    0.3468 C.3       1 <0>         0.0000
      2 C2          3.4203    2.0803   -1.1965 C.3       1 <0>         0.0000
      3 C3          2.1271    0.0762   -0.4262 C.3       1 <0>         0.0000
      4 C4          2.4205    2.1121    1.1138 C.3       1 <0>         0.0000
      5 C5          2.2498    1.6090   -0.3259 C.3       1 <0>         0.0000
      6 O1          3.6340    1.6327    1.6760 O.3       1 <0>         0.0000
      7 H1          1.0057   -0.2448    1.4109 H         1 <0>         0.0000
      8 H2         -0.0021   -0.1082   -0.0460 H         1 <0>         0.0000
      9 H3          0.9304   -1.5822    0.2616 H         1 <0>         0.0000
     10 H4          4.3733    1.6680   -0.8485 H         1 <0>         0.0000
     11 H5          3.4981    3.1724   -1.1848 H         1 <0>         0.0000
     12 H6          3.2787    1.7693   -2.2370 H         1 <0>         0.0000
     13 H7          2.0092   -0.2028   -1.4809 H         1 <0>         0.0000
     14 H8          3.0482   -0.4063   -0.0781 H         1 <0>         0.0000
     15 H9          1.5903    1.7818    1.7457 H         1 <0>         0.0000
     16 H10         2.4404    3.2072    1.1356 H         1 <0>         0.0000
     17 H11         1.3337    2.0583   -0.7308 H         1 <0>         0.0000
     18 H12         3.6822    1.9835    2.5802 H         1 <0>         0.0000
@<TRIPOS>BOND
     1    1    3 1
     2    2    5 1
     3    3    5 1
     4    4    5 1
     5    4    6 1
     6    1    7 1
     7    1    8 1
     8    1    9 1
     9    2   10 1
    10    2   11 1
    11    2   12 1
    12    3   13 1
    13    3   14 1
    14    4   15 1
    15    4   16 1
    16    5   17 1
    17    6   18 1
@<TRIPOS>MOLECULE
3-methyl-1-butanol
   18    17     0     0     0
SMALL
NO_CHARGES

@<TRIPOS>ATOM
      1 C1          0.1986   -1.0772    0.0118 C.3       1 <0>         0.0000
      2 C2         -2.1575   -1.6366   -0.6192 C.3       1 <0>         0.0000
      3 C3         -0.3808   -1.3238   -2.4187 C.3       1 <0>         0.0000
      4 C4          1.0651   -1.5436   -2.8473 C.3       1 <0>         0.0000
      5 C5         -0.6860   -1.8165   -0.9949 C.3       1 <0>         0.0000
      6 O1          1.2325   -1.0345   -4.1647 O.3       1 <0>         0.0000
      7 H1         -0.0034   -0.0010   -0.0089 H         1 <0>         0.0000
      8 H2          1.2613   -1.2269   -0.2074 H         1 <0>         0.0000
      9 H3          0.0090   -1.4315    1.0306 H         1 <0>         0.0000
     10 H4         -2.4530   -0.5829   -0.6647 H         1 <0>         0.0000
     11 H5         -2.3449   -1.9960    0.3985 H         1 <0>         0.0000
     12 H6         -2.8117   -2.2039   -1.2879 H         1 <0>         0.0000
     13 H7         -0.6054   -0.2513   -2.4915 H         1 <0>         0.0000
     14 H8         -1.0486   -1.8096   -3.1423 H         1 <0>         0.0000
     15 H9          1.7545   -1.0153   -2.1813 H         1 <0>         0.0000
     16 H10         1.3214   -2.6067   -2.8604 H         1 <0>         0.0000
     17 H11        -0.4442   -2.8850   -0.9331 H         1 <0>         0.0000
     18 H12         2.1594   -1.1887   -4.4079 H         1 <0>         0.0000
@<TRIPOS>BOND
     1    1    5 1
     2    2    5 1
     3    3    4 1
     4    3    5 1
     5    4    6 1
     6    1    7 1
     7    1    8 1
     8    1    9 1
     9    2   10 1
    10    2   11 1
    11    2   12 1
    12    3   13 1
    13    3   14 1
    14    4   15 1
    15    4   16 1
    16    5   17 1
    17    6   18 1
@<TRIPOS>MOLECULE
2-methyl-2-butanol
   18    17     0     0     0
SMALL
NO_CHARGES

@<TRIPOS>ATOM
      1 C1         -0.6454    0.3354    0.8029 C.3       1 <0>         0.0000
      2 C2         -2.1689   -0.4444   -1.7717 C.3       1 <0>         0.0000
      3 C3         -4.0814    0.9472   -0.9518 C.3       1 <0>         0.0000
      4 C4         -1.8896    1.0450    0.2809 C.3       1 <0>         0.0000
      5 C5         -2.8429    0.1483   -0.5334 C.3       1 <0>         0.0000
      6 O1         -3.2783   -0.9433    0.2800 O.3       1 <0>         0.0000
      7 H1         -0.9363   -0.5295    1.4083 H         1 <0>         0.0000
      8 H2         -0.0456    0.9936    1.4379 H         1 <0>         0.0000
      9 H3         -0.0168   -0.0258   -0.0166 H         1 <0>         0.0000
     10 H4         -1.2780   -1.0231   -1.5075 H         1 <0>         0.0000
     11 H5         -2.8545   -1.0891   -2.3317 H         1 <0>         0.0000
     12 H6         -1.8702    0.3487   -2.4675 H         1 <0>         0.0000
     13 H7         -4.5890    1.3863   -0.0869 H         1 <0>         0.0000
     14 H8         -3.8108    1.7535   -1.6432 H         1 <0>         0.0000
     15 H9         -4.7957    0.3107   -1.4865 H         1 <0>         0.0000
     16 H10        -1.5798    1.9073   -0.3223 H         1 <0>         0.0000
     17 H11        -2.4272    1.4407    1.1525 H         1 <0>         0.0000
     18 H12        -3.8988   -1.4547   -0.2601 H         1 <0>         0.0000
@<TRIPOS>BOND
     1    1    4 1
     2    2    5 1
     3    3    5 1
     4    4    5 1
     5    5    6 1
     6    1    7 1
     7    1    8 1
     8    1    9 1
     9    2   10 1
    10    2   11 1
    11    2   12 1
    12    3   13 1
    13    3   14 1
    14    3   15 1
    15    4   16 1
    16    4   17 1
    17    6   18 1
@<TRIPOS>MOLECULE
1-hexanol
   21    20     0     0     0
SMALL
NO_CHARGES

@<TRIPOS>ATOM
      1 C1          1.7833   -1.3584    0.9178 C.3       1 <0>         0.0000
      2 C2          1.1442   -1.8866    2.1933 C.3       1 <0>         0.0000
      3 C3         -0.1230   -1.1065    2.5457 C.3       1 <0>         0.0000
      4 C4         -0.7660   -1.5523    3.8620 C.3       1 <0>         0.0000
      5 C5         -2.0456   -0.7898    4.2020 C.3       1 <0>         0.0000
      6 C6         -2.6297   -1.2442    5.5331 C.3       1 <0>         0.0000
      7 O1         -3.8211   -0.5123    5.7858 O.3       1 <0>         0.0000
      8 H1          1.0759   -1.4224    0.0850 H         1 <0>         0.0000
      9 H2          2.0797   -0.3109    1.0323 H         1 <0>         0.0000
     10 H3          2.6719   -1.9406    0.6536 H         1 <0>         0.0000
     11 H4          1.8672   -1.8141    3.0137 H         1 <0>         0.0000
     12 H5          0.9125   -2.9479    2.0545 H         1 <0>         0.0000
     13 H6         -0.8521   -1.1958    1.7312 H         1 <0>         0.0000
     14 H7          0.1252   -0.0410    2.6309 H         1 <0>         0.0000
     15 H8         -0.0356   -1.4015    4.6668 H         1 <0>         0.0000
     16 H9         -0.9747   -2.6284    3.8233 H         1 <0>         0.0000
     17 H10        -2.8003   -0.9283    3.4193 H         1 <0>         0.0000
     18 H11        -1.8465    0.2883    4.2424 H         1 <0>         0.0000
     19 H12        -2.8747   -2.3107    5.5080 H         1 <0>         0.0000
     20 H13        -1.9274   -1.0587    6.3521 H         1 <0>         0.0000
     21 H14        -4.1667   -0.8245    6.6378 H         1 <0>         0.0000
@<TRIPOS>BOND
     1    1    2 1
     2    2    3 1
     3    3    4 1
     4    4    5 1
     5    5    6 1
     6    6    7 1
     7    1    8 1
     8    1    9 1
     9    1   10 1
    10    2   11 1
    11    2   12 1
    12    3   13 1
    13    3   14 1
    14    4   15 1
    15    4   16 1
    16    5   17 1
    17    5   18 1
    18    6   19 1
    19    6   20 1
    20    7   21 1
@<TRIPOS>MOLECULE
3-hexanol
   21    20     0     0     0
SMALL
NO_CHARGES

@<TRIPOS>ATOM
      1 C1          1.1087    3.8412    5.0928 C.3       1 <0>         0.0000
      2 C2         -0.8002   -1.8023    5.3370 C.3       1 <0>         0.0000
      3 C3          0.9795    2.3404    5.3023 C.3       1 <0>         0.0000
      4 C4         -0.6283   -0.2989    5.1946 C.3       1 <0>         0.0000
      5 C5          0.5680    1.6282    4.0091 C.3       1 <0>         0.0000
      6 C6          0.4585    0.1093    4.1927 C.3       1 <0>         0.0000
      7 O1          0.1384   -0.4748    2.9290 O.3       1 <0>         0.0000
      8 H1          0.1659    4.2709    4.7394 H         1 <0>         0.0000
      9 H2          1.3886    4.3444    6.0238 H         1 <0>         0.0000
     10 H3          1.8799    4.0545    4.3461 H         1 <0>         0.0000
     11 H4         -1.0482   -2.2623    4.3753 H         1 <0>         0.0000
     12 H5          0.1299   -2.2534    5.6977 H         1 <0>         0.0000
     13 H6         -1.5865   -2.0517    6.0549 H         1 <0>         0.0000
     14 H7          1.9384    1.9434    5.6551 H         1 <0>         0.0000
     15 H8          0.2409    2.1553    6.0903 H         1 <0>         0.0000
     16 H9         -0.3813    0.1218    6.1778 H         1 <0>         0.0000
     17 H10        -1.5853    0.1582    4.9135 H         1 <0>         0.0000
     18 H11        -0.4008    2.0280    3.6840 H         1 <0>         0.0000
     19 H12         1.3005    1.8617    3.2288 H         1 <0>         0.0000
     20 H13         1.4274   -0.2956    4.5080 H         1 <0>         0.0000
     21 H14         0.8383   -0.2020    2.3172 H         1 <0>         0.0000
@<TRIPOS>BOND
     1    1    3 1
     2    2    4 1
     3    3    5 1
     4    4    6 1
     5    5    6 1
     6    6    7 1
     7    1    8 1
     8    1    9 1
     9    1   10 1
    10    2   11 1
    11    2   12 1
    12    2   13 1
    13    3   14 1
    14    3   15 1
    15    4   16 1
    16    4   17 1
    17    5   18 1
    18    5   19 1
    19    6   20 1
    20    7   21 1
@<TRIPOS>MOLECULE
2-methyl-2-pentanol
   21    20     0     0     0
SMALL
NO_CHARGES

@<TRIPOS>ATOM
      1 C1          0.9423   -0.1186   -0.5403 C.3       1 <0>         0.0000
      2 C2         -0.2913   -4.8812   -1.5864 C.3       1 <0>         0.0000
      3 C3          1.3843   -3.8070   -3.1121 C.3       1 <0>         0.0000
      4 C4          0.7887   -1.1227   -1.6735 C.3       1 <0>         0.0000
      5 C5          0.4071   -2.5093   -1.1412 C.3       1 <0>         0.0000
      6 C6          0.1536   -3.5662   -2.2352 C.3       1 <0>         0.0000
      7 O1         -0.9126   -3.1052   -3.0679 O.3       1 <0>         0.0000
      8 H1          1.7002   -0.4495    0.1771 H         1 <0>         0.0000
      9 H2         -0.0030    0.0170   -0.0053 H         1 <0>         0.0000
     10 H3          1.2506    0.8543   -0.9357 H         1 <0>         0.0000
     11 H4         -1.1729   -4.7282   -0.9535 H         1 <0>         0.0000
     12 H5          0.4928   -5.2770   -0.9306 H         1 <0>         0.0000
     13 H6         -0.5326   -5.6399   -2.3379 H         1 <0>         0.0000
     14 H7          1.7236   -2.8815   -3.5887 H         1 <0>         0.0000
     15 H8          1.1480   -4.4953   -3.9323 H         1 <0>         0.0000
     16 H9          2.2119   -4.2324   -2.5357 H         1 <0>         0.0000
     17 H10         0.0244   -0.7586   -2.3689 H         1 <0>         0.0000
     18 H11         1.7346   -1.1738   -2.2228 H         1 <0>         0.0000
     19 H12         1.1930   -2.8628   -0.4615 H         1 <0>         0.0000
     20 H13        -0.5071   -2.3976   -0.5427 H         1 <0>         0.0000
     21 H14        -1.0619   -3.7984   -3.7277 H         1 <0>         0.0000
@<TRIPOS>BOND
     1    1    4 1
     2    2    6 1
     3    3    6 1
     4    4    5 1
     5    5    6 1
     6    6    7 1
     7    1    8 1
     8    1    9 1
     9    1   10 1
    10    2   11 1
    11    2   12 1
    12    2   13 1
    13    3   14 1
    14    3   15 1
    15    3   16 1
    16    4   17 1
    17    4   18 1
    18    5   19 1
    19    5   20 1
    20    7   21 1
@<TRIPOS>MOLECULE
4-methyl-2-pentanol
   21    20     0     0     0
SMALL
NO_CHARGES

@<TRIPOS>ATOM
      1 C1         -1.0223    0.4225   -0.1632 C.3       1 <0>         0.0000
      2 C2         -2.7720    0.9158   -1.8831 C.3       1 <0>         0.0000
      3 C3          1.5122   -0.0674   -2.8191 C.3       1 <0>         0.0000
      4 C4         -0.3932    1.5685   -2.3523 C.3       1 <0>         0.0000
      5 C5         -1.3046    0.5383   -1.6612 C.3       1 <0>         0.0000
      6 C6          1.1132    1.2947   -2.2678 C.3       1 <0>         0.0000
      7 O1          1.7735    2.3047   -3.0334 O.3       1 <0>         0.0000
      8 H1         -1.1649    1.3831    0.3430 H         1 <0>         0.0000
      9 H2          0.0020    0.0863    0.0240 H         1 <0>         0.0000
     10 H3         -1.6927   -0.3077    0.3030 H         1 <0>         0.0000
     11 H4         -2.9924    1.8954   -1.4459 H         1 <0>         0.0000
     12 H5         -3.0023    0.9695   -2.9525 H         1 <0>         0.0000
     13 H6         -3.4454    0.1814   -1.4280 H         1 <0>         0.0000
     14 H7          1.1710   -0.1858   -3.8533 H         1 <0>         0.0000
     15 H8          2.6029   -0.1686   -2.8361 H         1 <0>         0.0000
     16 H9          1.1054   -0.8851   -2.2179 H         1 <0>         0.0000
     17 H10        -0.5859    2.5666   -1.9347 H         1 <0>         0.0000
     18 H11        -0.6765    1.6478   -3.4111 H         1 <0>         0.0000
     19 H12        -1.1481   -0.4456   -2.1188 H         1 <0>         0.0000
     20 H13         1.4611    1.3970   -1.2349 H         1 <0>         0.0000
     21 H14         2.7236    2.1458   -2.9319 H         1 <0>         0.0000
@<TRIPOS>BOND
     1    1    5 1
     2    2    5 1
     3    3    6 1
     4    4    5 1
     5    4    6 1
     6    6    7 1
     7    1    8 1
     8    1    9 1
     9    1   10 1
    10    2   11 1
    11    2   12 1
    12    2   13 1
    13    3   14 1
    14    3   15 1
    15    3   16 1
    16    4   17 1
    17    4   18 1
    18    5   19 1
    19    6   20 1
    20    7   21 1
@<TRIPOS>MOLECULE
2-methyl-3-pentanol
   21    20     0     0     0
SMALL
NO_CHARGES

@<TRIPOS>ATOM
      1 C1          3.2784    0.1292   -0.4291 C.3       1 <0>         0.0000
      2 C2         -0.5382    1.5305    1.5085 C.3       1 <0>         0.0000
      3 C3          0.8078    3.2558    2.7130 C.3       1 <0>         0.0000
      4 C4          1.9819    0.8864   -0.1674 C.3       1 <0>         0.0000
      5 C5          0.6961    2.4338    1.4237 C.3       1 <0>         0.0000
      6 C6          2.0054    1.6542    1.1619 C.3       1 <0>         0.0000
      7 O1          3.1027    2.5655    1.1730 O.3       1 <0>         0.0000
      8 H1          3.4711   -0.5771    0.3850 H         1 <0>         0.0000
      9 H2          4.1341    0.8082   -0.4898 H         1 <0>         0.0000
     10 H3          3.2198   -0.4388   -1.3629 H         1 <0>         0.0000
     11 H4         -0.4442    0.8035    2.3206 H         1 <0>         0.0000
     12 H5         -1.4528    2.1097    1.6720 H         1 <0>         0.0000
     13 H6         -0.6644    0.9629    0.5800 H         1 <0>         0.0000
     14 H7          0.9609    2.6007    3.5774 H         1 <0>         0.0000
     15 H8         -0.1089    3.8278    2.8896 H         1 <0>         0.0000
     16 H9          1.6461    3.9594    2.6729 H         1 <0>         0.0000
     17 H10         1.8137    1.5846   -0.9954 H         1 <0>         0.0000
     18 H11         1.1647    0.1564   -0.1712 H         1 <0>         0.0000
     19 H12         0.5444    3.1381    0.5954 H         1 <0>         0.0000
     20 H13         2.1569    0.9449    1.9854 H         1 <0>         0.0000
     21 H14         3.9049    2.0313    1.0696 H         1 <0>         0.0000
@<TRIPOS>BOND
     1    1    4 1
     2    2    5 1
     3    3    5 1
     4    4    6 1
     5    5    6 1
     6    6    7 1
     7    1    8 1
     8    1    9 1
     9    1   10 1
    10    2   11 1
    11    2   12 1
    12    2   13 1
    13    3   14 1
    14    3   15 1
    15    3   16 1
    16    4   17 1
    17    4   18 1
    18    5   19 1
    19    6   20 1
    20    7   21 1
@<TRIPOS>MOLECULE
1-heptanol
   24    23     0     0     0
SMALL
NO_CHARGES

@<TRIPOS>ATOM
      1 C1          2.0122   -2.5402   -0.1882 C.3       1 <0>         0.0000
      2 C2          1.5978   -2.9985   -1.5783 C.3       1 <0>         0.0000
      3 C3          0.0762   -3.0068   -1.7315 C.3       1 <0>         0.0000
      4 C4         -0.3960   -3.5293   -3.0913 C.3       1 <0>         0.0000
      5 C5         -1.9190   -3.6070   -3.2176 C.3       1 <0>         0.0000
      6 C6         -2.3336   -4.1556   -4.5822 C.3       1 <0>         0.0000
      7 C7         -3.8475   -4.1981   -4.7344 C.3       1 <0>         0.0000
      8 O1         -4.1654   -4.7016   -6.0245 O.3       1 <0>         0.0000
      9 H1          1.6290   -1.5370    0.0245 H         1 <0>         0.0000
     10 H2          3.1034   -2.5114   -0.1085 H         1 <0>         0.0000
     11 H3          1.6340   -3.2231    0.5793 H         1 <0>         0.0000
     12 H4          1.9965   -4.0034   -1.7589 H         1 <0>         0.0000
     13 H5          2.0517   -2.3292   -2.3167 H         1 <0>         0.0000
     14 H6         -0.3183   -1.9963   -1.5687 H         1 <0>         0.0000
     15 H7         -0.3586   -3.6441   -0.9513 H         1 <0>         0.0000
     16 H8          0.0104   -2.8967   -3.8898 H         1 <0>         0.0000
     17 H9          0.0265   -4.5313   -3.2368 H         1 <0>         0.0000
     18 H10        -2.3586   -2.6124   -3.0838 H         1 <0>         0.0000
     19 H11        -2.3215   -4.2506   -2.4260 H         1 <0>         0.0000
     20 H12        -1.9265   -5.1643   -4.7263 H         1 <0>         0.0000
     21 H13        -1.9049   -3.5418   -5.3843 H         1 <0>         0.0000
     22 H14        -4.2785   -3.1968   -4.6355 H         1 <0>         0.0000
     23 H15        -4.2970   -4.8556   -3.9835 H         1 <0>         0.0000
     24 H16        -5.1341   -4.7159   -6.0891 H         1 <0>         0.0000
@<TRIPOS>BOND
     1    1    2 1
     2    2    3 1
     3    3    4 1
     4    4    5 1
     5    5    6 1
     6    6    7 1
     7    7    8 1
     8    1    9 1
     9    1   10 1
    10    1   11 1
    11    2   12 1
    12    2   13 1
    13    3   14 1
    14    3   15 1
    15    4   16 1
    16    4   17 1
    17    5   18 1
    18    5   19 1
    19    6   20 1
    20    6   21 1
    21    7   22 1
    22    7   23 1
    23    8   24 1
@<TRIPOS>MOLECULE
1-octanol
   27    26     0     0     0
SMALL
NO_CHARGES

@<TRIPOS>ATOM
      1 C1          2.7488    3.1255   -2.5860 C.3       1 <0>         0.0000
      2 C2          2.2131    1.7315   -2.8714 C.3       1 <0>         0.0000
      3 C3          1.0300    1.7733   -3.8398 C.3       1 <0>         0.0000
      4 C4          0.5206    0.3647   -4.1524 C.3       1 <0>         0.0000
      5 C5         -0.6196    0.3419   -5.1745 C.3       1 <0>         0.0000
      6 C6         -1.0791   -1.0707   -5.5423 C.3       1 <0>         0.0000
      7 C7         -2.1998   -1.0351   -6.5803 C.3       1 <0>         0.0000
      8 C8         -2.6928   -2.4339   -6.9230 C.3       1 <0>         0.0000
      9 O1         -3.7194   -2.3327   -7.9001 O.3       1 <0>         0.0000
     10 H1          3.0653    3.6210   -3.5094 H         1 <0>         0.0000
     11 H2          3.6063    3.0844   -1.9065 H         1 <0>         0.0000
     12 H3          1.9739    3.7410   -2.1184 H         1 <0>         0.0000
     13 H4          1.9058    1.2642   -1.9285 H         1 <0>         0.0000
     14 H5          3.0177    1.1166   -3.2913 H         1 <0>         0.0000
     15 H6          0.2275    2.3741   -3.3975 H         1 <0>         0.0000
     16 H7          1.3338    2.2698   -4.7692 H         1 <0>         0.0000
     17 H8          0.1946   -0.1254   -3.2269 H         1 <0>         0.0000
     18 H9          1.3486   -0.2344   -4.5517 H         1 <0>         0.0000
     19 H10        -1.4692    0.9198   -4.7908 H         1 <0>         0.0000
     20 H11        -0.2743    0.8533   -6.0817 H         1 <0>         0.0000
     21 H12        -1.4363   -1.5945   -4.6486 H         1 <0>         0.0000
     22 H13        -0.2309   -1.6423   -5.9379 H         1 <0>         0.0000
     23 H14        -1.8542   -0.5385   -7.4956 H         1 <0>         0.0000
     24 H15        -3.0400   -0.4334   -6.2118 H         1 <0>         0.0000
     25 H16        -1.8816   -3.0444   -7.3323 H         1 <0>         0.0000
     26 H17        -3.1023   -2.9316   -6.0382 H         1 <0>         0.0000
     27 H18        -4.0107   -3.2380   -8.0958 H         1 <0>         0.0000
@<TRIPOS>BOND
     1    1    2 1
     2    2    3 1
     3    3    4 1
     4    4    5 1
     5    5    6 1
     6    6    7 1
     7    7    8 1
     8    8    9 1
     9    1   10 1
    10    1   11 1
    11    1   12 1
    12    2   13 1
    13    2   14 1
    14    3   15 1
    15    3   16 1
    16    4   17 1
    17    4   18 1
    18    5   19 1
    19    5   20 1
    20    6   21 1
    21    6   22 1
    22    7   23 1
    23    7   24 1
    24    8   25 1
    25    8   26 1
    26    9   27 1
@<TRIPOS>MOLECULE
1-nonanol
   30    29     0     0     0
SMALL
NO_CHARGES

@<TRIPOS>ATOM
      1 C1         -1.7041    1.7752    4.0539 C.3       1 <0>         0.0000
      2 C2         -2.2584    1.8823    2.6415 C.3       1 <0>         0.0000
      3 C3         -1.9529    3.2476    2.0250 C.3       1 <0>         0.0000
      4 C4         -2.4110    3.3758    0.5690 C.3       1 <0>         0.0000
      5 C5         -2.0823    4.7035   -0.1204 C.3       1 <0>         0.0000
      6 C6         -2.5441    4.7640   -1.5779 C.3       1 <0>         0.0000
      7 C7         -2.1622    6.0975   -2.2253 C.3       1 <0>         0.0000
      8 C8         -2.5981    6.1475   -3.6926 C.3       1 <0>         0.0000
      9 C9         -2.2516    7.4770   -4.3516 C.3       1 <0>         0.0000
     10 O1         -2.6928    7.4782   -5.7017 O.3       1 <0>         0.0000
     11 H1         -0.6219    1.9392    4.0496 H         1 <0>         0.0000
     12 H2         -2.1580    2.5230    4.7118 H         1 <0>         0.0000
     13 H3         -1.8959    0.7836    4.4761 H         1 <0>         0.0000
     14 H4         -3.3401    1.7141    2.6772 H         1 <0>         0.0000
     15 H5         -1.8236    1.0884    2.0233 H         1 <0>         0.0000
     16 H6         -2.4041    4.0402    2.6329 H         1 <0>         0.0000
     17 H7         -0.8693    3.4192    2.0545 H         1 <0>         0.0000
     18 H8         -3.4967    3.2232    0.5251 H         1 <0>         0.0000
     19 H9         -1.9627    2.5571   -0.0077 H         1 <0>         0.0000
     20 H10        -2.5722    5.5074    0.4438 H         1 <0>         0.0000
     21 H11        -1.0058    4.9013   -0.0624 H         1 <0>         0.0000
     22 H12        -3.6317    4.6311   -1.6246 H         1 <0>         0.0000
     23 H13        -2.0905    3.9468   -2.1497 H         1 <0>         0.0000
     24 H14        -2.6338    6.9211   -1.6756 H         1 <0>         0.0000
     25 H15        -1.0773    6.2394   -2.1527 H         1 <0>         0.0000
     26 H16        -2.1037    5.3340   -4.2371 H         1 <0>         0.0000
     27 H17        -3.6799    5.9851   -3.7615 H         1 <0>         0.0000
     28 H18        -2.7514    8.2968   -3.8260 H         1 <0>         0.0000
     29 H19        -1.1715    7.6544   -4.3326 H         1 <0>         0.0000
     30 H20        -2.4505    8.3410   -6.0759 H         1 <0>         0.0000
@<TRIPOS>BOND
     1    1    2 1
     2    2    3 1
     3    3    4 1
     4    4    5 1
     5    5    6 1
     6    6    7 1
     7    7    8 1
     8    8    9 1
     9    9   10 1
    10    1   11 1
    11    1   12 1
    12    1   13 1
    13    2   14 1
    14    2   15 1
    15    3   16 1
    16    3   17 1
    17    4   18 1
    18    4   19 1
    19    5   20 1
    20    5   21 1
    21    6   22 1
    22    6   23 1
    23    7   24 1
    24    7   25 1
    25    8   26 1
    26    8   27 1
    27    9   28 1
    28    9   29 1
    29   10   30 1
@<TRIPOS>MOLECULE
1-decanol
   33    32     0     0     0
SMALL
NO_CHARGES

@<TRIPOS>ATOM
      1 C1         -2.9628    2.3594    0.3759 C.3       1 <0>         0.0000
      2 C2         -3.3899    2.1891   -1.0732 C.3       1 <0>         0.0000
      3 C3         -3.3848    0.7182   -1.4892 C.3       1 <0>         0.0000
      4 C4         -3.8476    0.5476   -2.9381 C.3       1 <0>         0.0000
      5 C5         -3.8779   -0.9289   -3.3391 C.3       1 <0>         0.0000
      6 C6         -4.4032   -1.1639   -4.7582 C.3       1 <0>         0.0000
      7 C7         -4.5034   -2.6442   -5.1326 C.3       1 <0>         0.0000
      8 C8         -5.0037   -2.8195   -6.5688 C.3       1 <0>         0.0000
      9 C9         -5.1331   -4.3010   -6.9352 C.3       1 <0>         0.0000
     10 C10        -5.6614   -4.5005   -8.3505 C.3       1 <0>         0.0000
     11 O1         -5.7443   -5.8873   -8.6459 O.3       1 <0>         0.0000
     12 H1         -1.9614    1.9487    0.5405 H         1 <0>         0.0000
     13 H2         -3.6581    1.8519    1.0522 H         1 <0>         0.0000
     14 H3         -2.9425    3.4205    0.6431 H         1 <0>         0.0000
     15 H4         -4.3939    2.6094   -1.2041 H         1 <0>         0.0000
     16 H5         -2.7119    2.7610   -1.7174 H         1 <0>         0.0000
     17 H6         -2.3742    0.3074   -1.3758 H         1 <0>         0.0000
     18 H7         -4.0428    0.1467   -0.8234 H         1 <0>         0.0000
     19 H8         -3.1708    1.1025   -3.5973 H         1 <0>         0.0000
     20 H9         -4.8476    0.9817   -3.0572 H         1 <0>         0.0000
     21 H10        -2.8740   -1.3601   -3.2423 H         1 <0>         0.0000
     22 H11        -4.5246   -1.4757   -2.6415 H         1 <0>         0.0000
     23 H12        -3.7623   -0.6416   -5.4789 H         1 <0>         0.0000
     24 H13        -5.3984   -0.7080   -4.8329 H         1 <0>         0.0000
     25 H14        -5.1866   -3.1530   -4.4419 H         1 <0>         0.0000
     26 H15        -3.5233   -3.1240   -5.0343 H         1 <0>         0.0000
     27 H16        -4.3080   -2.3303   -7.2615 H         1 <0>         0.0000
     28 H17        -5.9744   -2.3219   -6.6799 H         1 <0>         0.0000
     29 H18        -4.1562   -4.7898   -6.8458 H         1 <0>         0.0000
     30 H19        -5.8138   -4.7837   -6.2234 H         1 <0>         0.0000
     31 H20        -4.9826   -4.0354   -9.0722 H         1 <0>         0.0000
     32 H21        -6.6547   -4.0548   -8.4648 H         1 <0>         0.0000
     33 H22        -6.0839   -5.9617   -9.5527 H         1 <0>         0.0000
@<TRIPOS>BOND
     1    1    2 1
     2    2    3 1
     3    3    4 1
     4    4    5 1
     5    5    6 1
     6    6    7 1
     7    7    8 1
     8    8    9 1
     9    9   10 1
    10   10   11 1
    11    1   12 1
    12    1   13 1
    13    1   14 1
    14    2   15 1
    15    2   16 1
    16    3   17 1
    17    3   18 1
    18    4   19 1
    19    4   20 1
    20    5   21 1
    21    5   22 1
    22    6   23 1
    23    6   24 1
    24    7   25 1
    25    7   26 1
    26    8   27 1
    27    8   28 1
    28    9   29 1
    29    9   30 1
    30   10   31 1
    31   10   32 1
    32   11   33 1
@<TRIPOS>MOLECULE
cyclopentanol
   16    16     0     0     0
SMALL
NO_CHARGES

@<TRIPOS>ATOM
      1 C1          0.3046   -0.0385    1.0510 C.3       1 <0>         0.0000
      2 C2         -0.5073   -1.0667    1.8391 C.3       1 <0>         0.0000
      3 C3          1.7686   -0.4549    1.1854 C.3       1 <0>         0.0000
      4 C4          0.4994   -2.0828    2.3727 C.3       1 <0>         0.0000
      5 C5          1.8081   -1.3103    2.4423 C.3       1 <0>         0.0000
      6 O1          1.8253   -0.4673    3.5876 O.3       1 <0>         0.0000
      7 H1          0.0008    0.0002   -0.0001 H         1 <0>         0.0000
      8 H2          0.1486    0.9609    1.4731 H         1 <0>         0.0000
      9 H3         -1.0253   -0.5720    2.6691 H         1 <0>         0.0000
     10 H4         -1.2699   -1.5476    1.2182 H         1 <0>         0.0000
     11 H5          2.0582   -1.0539    0.3140 H         1 <0>         0.0000
     12 H6          2.4240    0.4196    1.2421 H         1 <0>         0.0000
     13 H7          0.1834   -2.4804    3.3419 H         1 <0>         0.0000
     14 H8          0.5906   -2.9149    1.6647 H         1 <0>         0.0000
     15 H9          2.6859   -1.9620    2.4746 H         1 <0>         0.0000
     16 H10         1.8503   -1.0504    4.3632 H         1 <0>         0.0000
@<TRIPOS>BOND
     1    1    2 1
     2    1    3 1
     3    2    4 1
     4    3    5 1
     5    4    5 1
     6    5    6 1
     7    1    7 1
     8    1    8 1
     9    2    9 1
    10    2   10 1
    11    3   11 1
    12    3   12 1
    13    4   13 1
    14    4   14 1
    15    5   15 1
    16    6   16 1
@<TRIPOS>MOLECULE
cyclohexanol
   19    19     0     0     0
SMALL
NO_CHARGES

@<TRIPOS>ATOM
      1 C1          0.8595   -0.5761   -0.3646 C.3       1 <0>         0.0000
      2 C2          1.9981   -0.4824    0.6484 C.3       1 <0>         0.0000
      3 C3          1.2772   -0.0492   -1.7356 C.3       1 <0>         0.0000
      4 C4          2.5549    0.9347    0.7374 C.3       1 <0>         0.0000
      5 C5          1.8340    1.3679   -1.6464 C.3       1 <0>         0.0000
      6 C6          2.9750    1.4610   -0.6344 C.3       1 <0>         0.0000
      7 O1          3.4005    2.8144   -0.5171 O.3       1 <0>         0.0000
      8 H1          0.5301   -1.6173   -0.4541 H         1 <0>         0.0000
      9 H2          0.0000   -0.0000    0.0001 H         1 <0>         0.0000
     10 H3          1.6426   -0.8026    1.6343 H         1 <0>         0.0000
     11 H4          2.8009   -1.1715    0.3584 H         1 <0>         0.0000
     12 H5          2.0377   -0.7130   -2.1648 H         1 <0>         0.0000
     13 H6          0.4174   -0.0658   -2.4146 H         1 <0>         0.0000
     14 H7          1.8026    1.6035    1.1761 H         1 <0>         0.0000
     15 H8          3.4104    0.9619    1.4230 H         1 <0>         0.0000
     16 H9          2.1833    1.6969   -2.6326 H         1 <0>         0.0000
     17 H10         1.0345    2.0666   -1.3668 H         1 <0>         0.0000
     18 H11         3.8350    0.8745   -0.9984 H         1 <0>         0.0000
     19 H12         4.1510    2.8174    0.0978 H         1 <0>         0.0000
@<TRIPOS>BOND
     1    1    2 1
     2    1    3 1
     3    2    4 1
     4    3    5 1
     5    4    6 1
     6    5    6 1
     7    6    7 1
     8    1    8 1
     9    1    9 1
    10    2   10 1
    11    2   11 1
    12    3   12 1
    13    3   13 1
    14    4   14 1
    15    4   15 1
    16    5   16 1
    17    5   17 1
    18    6   18 1
    19    7   19 1
@<TRIPOS>MOLECULE
cycloheptanol
   22    22     0     0     0
SMALL
NO_CHARGES

@<TRIPOS>ATOM
      1 C1          0.7738   -1.7245    0.9847 C.3       1 <0>         0.0000
      2 C2          0.8256   -0.2293    0.6859 C.3       1 <0>         0.0000
      3 C3          1.4773   -2.2078    2.2490 C.3       1 <0>         0.0000
      4 C4          0.7164    0.6798    1.9056 C.3       1 <0>         0.0000
      5 C5          2.8095   -1.5314    2.5507 C.3       1 <0>         0.0000
      6 C6          2.0672    0.9397    2.5671 C.3       1 <0>         0.0000
      7 C7          2.6557   -0.2347    3.3469 C.3       1 <0>         0.0000
      8 O1          3.9582    0.1437    3.8016 O.3       1 <0>         0.0000
      9 H1         -0.2764   -2.0389    1.0442 H         1 <0>         0.0000
     10 H2          1.1910   -2.2559    0.1198 H         1 <0>         0.0000
     11 H3          1.7431    0.0010    0.1301 H         1 <0>         0.0000
     12 H4         -0.0004    0.0001    0.0002 H         1 <0>         0.0000
     13 H5          0.8028   -2.1020    3.1077 H         1 <0>         0.0000
     14 H6          1.6477   -3.2866    2.1399 H         1 <0>         0.0000
     15 H7          0.3290    1.6485    1.5655 H         1 <0>         0.0000
     16 H8         -0.0095    0.2918    2.6291 H         1 <0>         0.0000
     17 H9          3.4153   -2.2230    3.1518 H         1 <0>         0.0000
     18 H10         3.3899   -1.3633    1.6352 H         1 <0>         0.0000
     19 H11         2.7917    1.2841    1.8170 H         1 <0>         0.0000
     20 H12         1.9586    1.7862    3.2587 H         1 <0>         0.0000
     21 H13         2.0494   -0.4254    4.2403 H         1 <0>         0.0000
     22 H14         4.4971    0.2676    3.0068 H         1 <0>         0.0000
@<TRIPOS>BOND
     1    1    2 1
     2    1    3 1
     3    2    4 1
     4    3    5 1
     5    4    6 1
     6    5    7 1
     7    6    7 1
     8    7    8 1
     9    1    9 1
    10    1   10 1
    11    2   11 1
    12    2   12 1
    13    3   13 1
    14    3   14 1
    15    4   15 1
    16    4   16 1
    17    5   17 1
    18    5   18 1
    19    6   19 1
    20    6   20 1
    21    7   21 1
    22    8   22 1
@<TRIPOS>MOLECULE
2-propene-1-ol
   10     9     0     0     0
SMALL
NO_CHARGES

@<TRIPOS>ATOM
      1 C1         -0.4683    0.6052    0.7686 C.2       1 <0>         0.0000
      2 C2         -1.5851    0.1863    1.3739 C.2       1 <0>         0.0000
      3 C3         -2.2686   -1.1037    1.0626 C.3       1 <0>         0.0000
      4 O1         -2.3092   -1.8950    2.2417 O.3       1 <0>         0.0000
      5 H1         -0.0040    1.5507    1.0257 H         1 <0>         0.0000
      6 H2          0.0000    0.0000    0.0000 H         1 <0>         0.0000
      7 H3         -2.0350    0.8201    2.1337 H         1 <0>         0.0000
      8 H4         -1.7500   -1.6681    0.2812 H         1 <0>         0.0000
      9 H5         -3.2951   -0.9099    0.7364 H         1 <0>         0.0000
     10 H6         -2.7577   -2.7240    2.0082 H         1 <0>         0.0000
@<TRIPOS>BOND
     1    1    2 2
     2    2    3 1
     3    3    4 1
     4    1    5 1
     5    1    6 1
     6    2    7 1
     7    3    8 1
     8    3    9 1
     9    4   10 1
@<TRIPOS>MOLECULE
2-methoxyethanol
   13    12     0     0     0
SMALL
NO_CHARGES

@<TRIPOS>ATOM
      1 C1         -4.4874   -0.0068   -0.1997 C.3       1 <0>         0.0000
      2 C2         -0.8936    0.4506    0.4416 C.3       1 <0>         0.0000
      3 C3         -2.1461   -0.1936   -0.1209 C.3       1 <0>         0.0000
      4 O1         -0.8015    1.7855   -0.0410 O.3       1 <0>         0.0000
      5 O2         -3.2827    0.5410    0.3172 O.3       1 <0>         0.0000
      6 H1         -5.3375    0.5804    0.1560 H         1 <0>         0.0000
      7 H2         -4.5860   -1.0452    0.1267 H         1 <0>         0.0000
      8 H3         -4.4542    0.0285   -1.2912 H         1 <0>         0.0000
      9 H4          0.0040   -0.0891    0.1246 H         1 <0>         0.0000
     10 H5         -0.9377    0.4835    1.5341 H         1 <0>         0.0000
     11 H6         -2.2509   -1.2251    0.2298 H         1 <0>         0.0000
     12 H7         -2.1275   -0.1762   -1.2145 H         1 <0>         0.0000
     13 H8          0.0079    2.1639    0.3380 H         1 <0>         0.0000
@<TRIPOS>BOND
     1    1    5 1
     2    2    3 1
     3    2    4 1
     4    3    5 1
     5    1    6 1
     6    1    7 1
     7    1    8 1
     8    2    9 1
     9    2   10 1
    10    3   11 1
    11    3   12 1
    12    4   13 1
@<TRIPOS>MOLECULE
2-ethoxyethanol
   16    15     0     0     0
SMALL
NO_CHARGES

@<TRIPOS>ATOM
      1 C1         -5.6567    0.8147    0.2998 C.3       1 <0>         0.0000
      2 C2         -4.4874   -0.0068   -0.1997 C.3       1 <0>         0.0000
      3 C3         -0.8936    0.4506    0.4416 C.3       1 <0>         0.0000
      4 C4         -2.1461   -0.1936   -0.1209 C.3       1 <0>         0.0000
      5 O1         -0.8015    1.7855   -0.0410 O.3       1 <0>         0.0000
      6 O2         -3.2827    0.5410    0.3172 O.3       1 <0>         0.0000
      7 H1         -5.7066    0.7987    1.3921 H         1 <0>         0.0000
      8 H2         -5.5696    1.8536   -0.0350 H         1 <0>         0.0000
      9 H3         -6.5992    0.4287   -0.1026 H         1 <0>         0.0000
     10 H4         -4.4432    0.0134   -1.2927 H         1 <0>         0.0000
     11 H5         -4.5756   -1.0442    0.1364 H         1 <0>         0.0000
     12 H6          0.0040   -0.0891    0.1246 H         1 <0>         0.0000
     13 H7         -0.9377    0.4835    1.5341 H         1 <0>         0.0000
     14 H8         -2.2509   -1.2251    0.2298 H         1 <0>         0.0000
     15 H9         -2.1275   -0.1762   -1.2145 H         1 <0>         0.0000
     16 H10         0.0079    2.1639    0.3380 H         1 <0>         0.0000
@<TRIPOS>BOND
     1    1    2 1
     2    2    6 1
     3    3    4 1
     4    3    5 1
     5    4    6 1
     6    1    7 1
     7    1    8 1
     8    1    9 1
     9    2   10 1
    10    2   11 1
    11    3   12 1
    12    3   13 1
    13    4   14 1
    14    4   15 1
    15    5   16 1
@<TRIPOS>MOLECULE
2-propoxyethanol
   19    18     0     0     0
SMALL
NO_CHARGES

@<TRIPOS>ATOM
      1 C1         -0.0095   -0.6551    0.8768 C.3       1 <0>         0.0000
      2 C2          1.2444   -0.4434    1.7060 C.3       1 <0>         0.0000
      3 C3          1.2749   -1.3494    2.9273 C.3       1 <0>         0.0000
      4 C4          3.8457   -1.6035    5.5465 C.3       1 <0>         0.0000
      5 C5          2.5499   -1.9092    4.8204 C.3       1 <0>         0.0000
      6 O1          4.9400   -1.8943    4.6855 O.3       1 <0>         0.0000
      7 O2          2.4629   -1.0899    3.6622 O.3       1 <0>         0.0000
      8 H1         -0.0920   -1.6965    0.5497 H         1 <0>         0.0000
      9 H2         -0.8996   -0.4128    1.4659 H         1 <0>         0.0000
     10 H3         -0.0053   -0.0150   -0.0111 H         1 <0>         0.0000
     11 H4          1.3083    0.6043    2.0234 H         1 <0>         0.0000
     12 H5          2.1333   -0.6260    1.0902 H         1 <0>         0.0000
     13 H6          0.4147   -1.1588    3.5770 H         1 <0>         0.0000
     14 H7          1.2712   -2.4035    2.6320 H         1 <0>         0.0000
     15 H8          3.9478   -2.2175    6.4466 H         1 <0>         0.0000
     16 H9          3.8933   -0.5442    5.8153 H         1 <0>         0.0000
     17 H10         1.6829   -1.6969    5.4539 H         1 <0>         0.0000
     18 H11         2.5267   -2.9556    4.5025 H         1 <0>         0.0000
     19 H12         5.7480   -1.6876    5.1817 H         1 <0>         0.0000
@<TRIPOS>BOND
     1    1    2 1
     2    2    3 1
     3    3    7 1
     4    4    5 1
     5    4    6 1
     6    5    7 1
     7    1    8 1
     8    1    9 1
     9    1   10 1
    10    2   11 1
    11    2   12 1
    12    3   13 1
    13    3   14 1
    14    4   15 1
    15    4   16 1
    16    5   17 1
    17    5   18 1
    18    6   19 1
@<TRIPOS>MOLECULE
2-butoxyethanol
   22    21     0     0     0
SMALL
NO_CHARGES

@<TRIPOS>ATOM
      1 C1          0.4086   -1.0630   -0.1228 C.3       1 <0>         0.0000
      2 C2         -0.5745   -2.0349    0.5099 C.3       1 <0>         0.0000
      3 C3         -1.9307   -1.9925   -0.1885 C.3       1 <0>         0.0000
      4 C4         -2.9047   -2.9950    0.4140 C.3       1 <0>         0.0000
      5 C5         -6.3901   -3.6833   -0.5413 C.3       1 <0>         0.0000
      6 C6         -5.0930   -3.8319    0.2302 C.3       1 <0>         0.0000
      7 O1         -6.8781   -2.3572   -0.3777 O.3       1 <0>         0.0000
      8 O2         -4.1377   -2.9159   -0.2877 O.3       1 <0>         0.0000
      9 H1          0.0248   -0.0384   -0.0880 H         1 <0>         0.0000
     10 H2          1.3724   -1.0868    0.3957 H         1 <0>         0.0000
     11 H3          0.5802   -1.3260   -1.1712 H         1 <0>         0.0000
     12 H4         -0.1609   -3.0488    0.4588 H         1 <0>         0.0000
     13 H5         -0.6936   -1.7861    1.5708 H         1 <0>         0.0000
     14 H6         -2.3601   -0.9850   -0.1238 H         1 <0>         0.0000
     15 H7         -1.8129   -2.1993   -1.2596 H         1 <0>         0.0000
     16 H8         -2.5190   -4.0157    0.3261 H         1 <0>         0.0000
     17 H9         -3.0903   -2.7735    1.4699 H         1 <0>         0.0000
     18 H10        -7.1519   -4.3751   -0.1692 H         1 <0>         0.0000
     19 H11        -6.2231   -3.8577   -1.6082 H         1 <0>         0.0000
     20 H12        -4.6863   -4.8429    0.1275 H         1 <0>         0.0000
     21 H13        -5.2486   -3.6030    1.2885 H         1 <0>         0.0000
     22 H14        -6.1947   -1.7633   -0.7275 H         1 <0>         0.0000
@<TRIPOS>BOND
     1    1    2 1
     2    2    3 1
     3    3    4 1
     4    4    8 1
     5    5    6 1
     6    5    7 1
     7    6    8 1
     8    1    9 1
     9    1   10 1
    10    1   11 1
    11    2   12 1
    12    2   13 1
    13    3   14 1
    14    3   15 1
    15    4   16 1
    16    4   17 1
    17    5   18 1
    18    5   19 1
    19    6   20 1
    20    6   21 1
    21    7   22 1
@<TRIPOS>MOLECULE
2,2,2-trifluoroethanol
    9     8     0     0     0
SMALL
NO_CHARGES

@<TRIPOS>ATOM
      1 C1          0.7722   -0.3315    0.7004 C.3       1 <0>         0.0000
      2 C2          1.3425    0.8421    1.4537 C.3       1 <0>         0.0000
      3 O1          1.8121   -0.9630   -0.0310 O.3       1 <0>         0.0000
      4 F1          2.3095    0.4360    2.3055 F         1 <0>         0.0000
      5 F2          0.3914    1.4672    2.1793 F         1 <0>         0.0000
      6 F3          1.8891    1.7450    0.6124 F         1 <0>         0.0000
      7 H1          0.3377   -1.0582    1.3932 H         1 <0>         0.0000
      8 H2          0.0000    0.0000    0.0000 H         1 <0>         0.0000
      9 H3          1.4108   -1.7115   -0.5024 H         1 <0>         0.0000
@<TRIPOS>BOND
     1    1    2 1
     2    1    3 1
     3    2    4 1
     4    2    5 1
     5    2    6 1
     6    1    7 1
     7    1    8 1
     8    3    9 1
@<TRIPOS>MOLECULE
hexafluoropropene
    9     8     0     0     0
SMALL
NO_CHARGES

@<TRIPOS>ATOM
      1 C1          0.2302    0.0259    0.4913 C.2       1 <0>         0.0000
      2 C2         -0.9363   -0.4461    0.9412 C.2       1 <0>         0.0000
      3 C3          0.5481    0.3055   -0.9341 C.3       1 <0>         0.0000
      4 F1          1.1998    0.2690    1.4040 F         1 <0>         0.0000
      5 F2         -1.1323   -0.6692    2.2574 F         1 <0>         0.0000
      6 F3         -1.9323   -0.7033    0.0671 F         1 <0>         0.0000
      7 F4          1.8040    0.7802   -1.1293 F         1 <0>         0.0000
      8 F5          0.4302   -0.8131   -1.6937 F         1 <0>         0.0000
      9 F6         -0.3028    1.2244   -1.4574 F         1 <0>         0.0000
@<TRIPOS>BOND
     1    1    2 2
     2    1    3 1
     3    1    4 1
     4    2    5 1
     5    2    6 1
     6    3    7 1
     7    3    8 1
     8    3    9 1
@<TRIPOS>MOLECULE
N-methylpiperidine
   20    20     0     0     0
SMALL
NO_CHARGES

@<TRIPOS>ATOM
      1 C1          0.6363    0.8488    0.2794 C.3       1 <0>         0.0000
      2 C2          0.0019    2.1441   -0.2139 C.3       1 <0>         0.0000
      3 C3          0.8047    0.8812    1.7942 C.3       1 <0>         0.0000
      4 C4         -1.2866    2.4578    0.5483 C.3       1 <0>         0.0000
      5 C5         -0.5091    1.2349    2.4928 C.3       1 <0>         0.0000
      6 C6         -2.2769    2.8571    2.7077 C.3       1 <0>         0.0000
      7 N1         -1.0464    2.5099    1.9972 N.3       1 <0>         0.0000
      8 H1          0.0002   -0.0000   -0.0001 H         1 <0>         0.0000
      9 H2          1.6076    0.6974   -0.2042 H         1 <0>         0.0000
     10 H3          0.7129    2.9709   -0.0892 H         1 <0>         0.0000
     11 H4         -0.2119    2.0660   -1.2860 H         1 <0>         0.0000
     12 H5          1.1608   -0.0934    2.1472 H         1 <0>         0.0000
     13 H6          1.5728    1.6181    2.0615 H         1 <0>         0.0000
     14 H7         -1.6617    3.4277    0.1994 H         1 <0>         0.0000
     15 H8         -2.0498    1.7064    0.3052 H         1 <0>         0.0000
     16 H9         -1.2334    0.4225    2.3472 H         1 <0>         0.0000
     17 H10        -0.3138    1.3082    3.5696 H         1 <0>         0.0000
     18 H11        -2.0914    2.8941    3.7843 H         1 <0>         0.0000
     19 H12        -3.0511    2.1109    2.5095 H         1 <0>         0.0000
     20 H13        -2.6399    3.8347    2.3793 H         1 <0>         0.0000
@<TRIPOS>BOND
     1    1    2 1
     2    1    3 1
     3    2    4 1
     4    3    5 1
     5    4    7 1
     6    5    7 1
     7    6    7 1
     8    1    8 1
     9    1    9 1
    10    2   10 1
    11    2   11 1
    12    3   12 1
    13    3   13 1
    14    4   14 1
    15    4   15 1
    16    5   16 1
    17    5   17 1
    18    6   18 1
    19    6   19 1
    20    6   20 1
@<TRIPOS>MOLECULE
ethanethiol
    9     8     0     0     0
SMALL
NO_CHARGES

@<TRIPOS>ATOM
      1 C1          0.4412   -0.3496    0.9395 C.3       1 <0>         0.0000
      2 C2          1.8518   -0.8681    0.7340 C.3       1 <0>         0.0000
      3 S1          2.9258    0.4446    0.0921 S.3       1 <0>         0.0000
      4 H1          0.4191    0.4857    1.6477 H         1 <0>         0.0000
      5 H2         -0.0075   -0.0190   -0.0033 H         1 <0>         0.0000
      6 H3         -0.1923   -1.1447    1.3466 H         1 <0>         0.0000
      7 H4          1.8501   -1.7008    0.0240 H         1 <0>         0.0000
      8 H5          2.2645   -1.2294    1.6807 H         1 <0>         0.0000
      9 H6          2.2273    0.6661   -1.0299 H         1 <0>         0.0000
@<TRIPOS>BOND
     1    1    2 1
     2    2    3 1
     3    1    4 1
     4    1    5 1
     5    1    6 1
     6    2    7 1
     7    2    8 1
     8    3    9 1
@<TRIPOS>MOLECULE
n-propanethiol
   12    11     0     0     0
SMALL
NO_CHARGES

@<TRIPOS>ATOM
      1 C1          0.1575   -0.4974    0.9622 C.3       1 <0>         0.0000
      2 C2          1.6397   -0.5220    1.3061 C.3       1 <0>         0.0000
      3 C3          1.8811   -1.2098    2.6451 C.3       1 <0>         0.0000
      4 S1          3.6533   -1.2345    3.0372 S.3       1 <0>         0.0000
      5 H1         -0.2533   -1.5114    0.9245 H         1 <0>         0.0000
      6 H2         -0.3977    0.0661    1.7186 H         1 <0>         0.0000
      7 H3         -0.0120   -0.0211   -0.0088 H         1 <0>         0.0000
      8 H4          2.0115    0.5095    1.3338 H         1 <0>         0.0000
      9 H5          2.1779   -1.0441    0.5058 H         1 <0>         0.0000
     10 H6          1.3554   -0.6852    3.4494 H         1 <0>         0.0000
     11 H7          1.5173   -2.2420    2.6204 H         1 <0>         0.0000
     12 H8          3.5305   -1.8714    4.2096 H         1 <0>         0.0000
@<TRIPOS>BOND
     1    1    2 1
     2    2    3 1
     3    3    4 1
     4    1    5 1
     5    1    6 1
     6    1    7 1
     7    2    8 1
     8    2    9 1
     9    3   10 1
    10    3   11 1
    11    4   12 1
@<TRIPOS>MOLECULE
n-butanethiol
   15    14     0     0     0
SMALL
NO_CHARGES

@<TRIPOS>ATOM
      1 C1          0.8879   -0.0985   -0.6256 C.3       1 <0>         0.0000
      2 C2          0.8885   -1.4198   -1.3796 C.3       1 <0>         0.0000
      3 C3         -0.3384   -1.5430   -2.2871 C.3       1 <0>         0.0000
      4 C4         -0.4452   -2.8933   -2.9954 C.3       1 <0>         0.0000
      5 S1          0.9538   -3.2248   -4.1064 S.3       1 <0>         0.0000
      6 H1          0.8756    0.7396   -1.3296 H         1 <0>         0.0000
      7 H2          1.7808   -0.0029    0.0005 H         1 <0>         0.0000
      8 H3          0.0060   -0.0150    0.0176 H         1 <0>         0.0000
      9 H4          0.9009   -2.2445   -0.6576 H         1 <0>         0.0000
     10 H5          1.8112   -1.4872   -1.9659 H         1 <0>         0.0000
     11 H6         -0.3459   -0.7281   -3.0219 H         1 <0>         0.0000
     12 H7         -1.2397   -1.4132   -1.6745 H         1 <0>         0.0000
     13 H8         -0.5106   -3.7055   -2.2644 H         1 <0>         0.0000
     14 H9         -1.3592   -2.9163   -3.5978 H         1 <0>         0.0000
     15 H10         0.5253   -4.4259   -4.5171 H         1 <0>         0.0000
@<TRIPOS>BOND
     1    1    2 1
     2    2    3 1
     3    3    4 1
     4    4    5 1
     5    1    6 1
     6    1    7 1
     7    1    8 1
     8    2    9 1
     9    2   10 1
    10    3   11 1
    11    3   12 1
    12    4   13 1
    13    4   14 1
    14    5   15 1
@<TRIPOS>MOLECULE
diethylsulfide
   15    14     0     0     0
SMALL
NO_CHARGES

@<TRIPOS>ATOM
      1 C1          0.5033   -0.3033    1.1381 C.3       1 <0>         0.0000
      2 C2          5.4936    0.2991   -0.8463 C.3       1 <0>         0.0000
      3 C3          1.8518   -0.8681    0.7340 C.3       1 <0>         0.0000
      4 C4          4.3832   -0.5607   -0.2730 C.3       1 <0>         0.0000
      5 S1          2.9258    0.4446    0.0921 S.3       1 <0>         0.0000
      6 H1          0.6047    0.4638    1.9134 H         1 <0>         0.0000
      7 H2         -0.0229    0.1334    0.2826 H         1 <0>         0.0000
      8 H3         -0.1285   -1.1009    1.5431 H         1 <0>         0.0000
      9 H4          5.1811    0.7950   -1.7715 H         1 <0>         0.0000
     10 H5          5.8189    1.0644   -0.1335 H         1 <0>         0.0000
     11 H6          6.3628   -0.3238   -1.0826 H         1 <0>         0.0000
     12 H7          1.7267   -1.6313   -0.0402 H         1 <0>         0.0000
     13 H8          2.3409   -1.3340    1.5948 H         1 <0>         0.0000
     14 H9          4.7169   -1.0457    0.6494 H         1 <0>         0.0000
     15 H10         4.1025   -1.3421   -0.9856 H         1 <0>         0.0000
@<TRIPOS>BOND
     1    1    3 1
     2    2    4 1
     3    3    5 1
     4    4    5 1
     5    1    6 1
     6    1    7 1
     7    1    8 1
     8    2    9 1
     9    2   10 1
    10    2   11 1
    11    3   12 1
    12    3   13 1
    13    4   14 1
    14    4   15 1
@<TRIPOS>MOLECULE
di-n-propylsulfide
   21    20     0     0     0
SMALL
NO_CHARGES

@<TRIPOS>ATOM
      1 C1         -0.3672   -0.3200    3.3261 C.3       1 <0>         0.0000
      2 C2          6.2007   -3.4172    0.6460 C.3       1 <0>         0.0000
      3 C3          1.1200   -0.3490    3.6472 C.3       1 <0>         0.0000
      4 C4          5.7179   -2.5113    1.7694 C.3       1 <0>         0.0000
      5 C5          1.8811   -1.2098    2.6451 C.3       1 <0>         0.0000
      6 C6          4.2094   -2.3030    1.6966 C.3       1 <0>         0.0000
      7 S1          3.6528   -1.2294    3.0399 S.3       1 <0>         0.0000
      8 H1         -0.5431    0.0639    2.3161 H         1 <0>         0.0000
      9 H2         -0.7871   -1.3291    3.3839 H         1 <0>         0.0000
     10 H3         -0.9092    0.3146    4.0347 H         1 <0>         0.0000
     11 H4          5.7013   -4.3906    0.6849 H         1 <0>         0.0000
     12 H5          5.9846   -2.9632   -0.3262 H         1 <0>         0.0000
     13 H6          7.2810   -3.5818    0.7116 H         1 <0>         0.0000
     14 H7          1.2528   -0.7383    4.6639 H         1 <0>         0.0000
     15 H8          1.5024    0.6788    3.6361 H         1 <0>         0.0000
     16 H9          6.2405   -1.5499    1.6952 H         1 <0>         0.0000
     17 H10         5.9954   -2.9631    2.7295 H         1 <0>         0.0000
     18 H11         1.5110   -2.2400    2.6610 H         1 <0>         0.0000
     19 H12         1.7568   -0.8214    1.6292 H         1 <0>         0.0000
     20 H13         3.9285   -1.8411    0.7447 H         1 <0>         0.0000
     21 H14         3.6830   -3.2595    1.7768 H         1 <0>         0.0000
@<TRIPOS>BOND
     1    1    3 1
     2    2    4 1
     3    3    5 1
     4    4    6 1
     5    5    7 1
     6    6    7 1
     7    1    8 1
     8    1    9 1
     9    1   10 1
    10    2   11 1
    11    2   12 1
    12    2   13 1
    13    3   14 1
    14    3   15 1
    15    4   16 1
    16    4   17 1
    17    5   18 1
    18    5   19 1
    19    6   20 1
    20    6   21 1
@<TRIPOS>MOLECULE
di-isopropylsulfide
   21    20     0     0     0
SMALL
NO_CHARGES

@<TRIPOS>ATOM
      1 C1          0.8900    0.3284    2.7307 C.3       1 <0>         0.0000
      2 C2          0.9729    0.1338    0.2216 C.3       1 <0>         0.0000
      3 C3          2.7866    3.9748    1.6014 C.3       1 <0>         0.0000
      4 C4          0.7756    4.7972    2.8741 C.3       1 <0>         0.0000
      5 C5          1.2990    1.0057    1.4282 C.3       1 <0>         0.0000
      6 C6          1.5251    3.5751    2.3572 C.3       1 <0>         0.0000
      7 S1          0.4464    2.6115    1.2755 S.3       1 <0>         0.0000
      8 H1         -0.1860    0.1214    2.7306 H         1 <0>         0.0000
      9 H2          1.4059   -0.6295    2.8611 H         1 <0>         0.0000
     10 H3          1.1041    0.9564    3.6030 H         1 <0>         0.0000
     11 H4         -0.1018   -0.0762    0.1829 H         1 <0>         0.0000
     12 H5          1.4915   -0.8300    0.2742 H         1 <0>         0.0000
     13 H6          1.2470    0.6212   -0.7210 H         1 <0>         0.0000
     14 H7          2.5330    4.6147    0.7489 H         1 <0>         0.0000
     15 H8          3.4722    4.5415    2.2414 H         1 <0>         0.0000
     16 H9          3.3225    3.1026    1.2101 H         1 <0>         0.0000
     17 H10         0.4910    5.4498    2.0411 H         1 <0>         0.0000
     18 H11         1.3987    5.3892    3.5536 H         1 <0>         0.0000
     19 H12        -0.1431    4.5197    3.4034 H         1 <0>         0.0000
     20 H13         2.3760    1.2036    1.4485 H         1 <0>         0.0000
     21 H14         1.8000    2.9371    3.2038 H         1 <0>         0.0000
@<TRIPOS>BOND
     1    1    5 1
     2    2    5 1
     3    3    6 1
     4    4    6 1
     5    5    7 1
     6    6    7 1
     7    1    8 1
     8    1    9 1
     9    1   10 1
    10    2   11 1
    11    2   12 1
    12    2   13 1
    13    3   14 1
    14    3   15 1
    15    3   16 1
    16    4   17 1
    17    4   18 1
    18    4   19 1
    19    5   20 1
    20    6   21 1
@<TRIPOS>MOLECULE
diethyldisulfide
   16    15     0     0     0
SMALL
NO_CHARGES

@<TRIPOS>ATOM
      1 C1         -0.2793    0.2909   -0.1360 C.3       1 <0>         0.0000
      2 C2          2.7148   -5.2654    1.1761 C.3       1 <0>         0.0000
      3 C3          0.8115   -0.6598    0.3193 C.3       1 <0>         0.0000
      4 C4          1.5891   -4.2574    1.0432 C.3       1 <0>         0.0000
      5 S1          0.2411   -1.6598    1.7146 S.3       1 <0>         0.0000
      6 S2          1.8940   -2.8212    2.1001 S.3       1 <0>         0.0000
      7 H1         -1.1789   -0.2498   -0.4493 H         1 <0>         0.0000
      8 H2         -0.5546    0.9963    0.6554 H         1 <0>         0.0000
      9 H3          0.0701    0.8756   -0.9935 H         1 <0>         0.0000
     10 H4          3.6791   -4.8311    0.8912 H         1 <0>         0.0000
     11 H5          2.7937   -5.6481    2.1993 H         1 <0>         0.0000
     12 H6          2.5295   -6.1199    0.5167 H         1 <0>         0.0000
     13 H7          1.6992   -0.0988    0.6272 H         1 <0>         0.0000
     14 H8          1.0980   -1.3275   -0.4988 H         1 <0>         0.0000
     15 H9          0.6368   -4.7121    1.3325 H         1 <0>         0.0000
     16 H10         1.5034   -3.9196    0.0060 H         1 <0>         0.0000
@<TRIPOS>BOND
     1    1    3 1
     2    2    4 1
     3    3    5 1
     4    4    6 1
     5    5    6 1
     6    1    7 1
     7    1    8 1
     8    1    9 1
     9    2   10 1
    10    2   11 1
    11    2   12 1
    12    3   13 1
    13    3   14 1
    14    4   15 1
    15    4   16 1
@<TRIPOS>MOLECULE
triethylphosphate
   23    22     0     0     0
SMALL
NO_CHARGES

@<TRIPOS>ATOM
      1 C1          0.5961   -1.7969   -0.8447 C.3       1 <0>         0.0000
      2 C2         -1.0892    2.5514   -0.9894 C.3       1 <0>         0.0000
      3 C3         -0.1795    0.2139   -5.0635 C.3       1 <0>         0.0000
      4 C4          0.4926   -0.2889   -0.9326 C.3       1 <0>         0.0000
      5 C5         -0.4706    2.0251   -2.2673 C.3       1 <0>         0.0000
      6 C6          0.5025   -0.1790   -3.7701 C.3       1 <0>         0.0000
      7 O1         -1.8442   -0.3447   -2.3638 O.2       1 <0>         0.0000
      8 P1         -0.4642    0.2457   -2.3361 P.3       1 <0>         0.0000
      9 H1         -0.3965   -2.2502   -0.7665 H         1 <0>         0.0000
     10 H2          1.0955   -2.1996   -1.7314 H         1 <0>         0.0000
     11 H3          1.1846   -2.0910    0.0299 H         1 <0>         0.0000
     12 H4         -2.1229    2.2079   -0.8885 H         1 <0>         0.0000
     13 H5         -0.5206    2.2099   -0.1189 H         1 <0>         0.0000
     14 H6         -1.0821    3.6459   -0.9820 H         1 <0>         0.0000
     15 H7         -1.1512   -0.2801   -5.1555 H         1 <0>         0.0000
     16 H8         -0.3327    1.2969   -5.1029 H         1 <0>         0.0000
     17 H9          0.4376   -0.0655   -5.9231 H         1 <0>         0.0000
     18 H10         1.4925    0.1497   -1.0103 H         1 <0>         0.0000
     19 H11         0.0239    0.1059   -0.0256 H         1 <0>         0.0000
     20 H12         0.5623    2.3768   -2.3541 H         1 <0>         0.0000
     21 H13        -1.0258    2.4013   -3.1324 H         1 <0>         0.0000
     22 H14         1.4723    0.3227   -3.6924 H         1 <0>         0.0000
     23 H15         0.6825   -1.2586   -3.7568 H         1 <0>         0.0000
@<TRIPOS>BOND
     1    1    4 1
     2    2    5 1
     3    3    6 1
     4    4    8 1
     5    5    8 1
     6    6    8 1
     7    7    8 2
     8    1    9 1
     9    1   10 1
    10    1   11 1
    11    2   12 1
    12    2   13 1
    13    2   14 1
    14    3   15 1
    15    3   16 1
    16    3   17 1
    17    4   18 1
    18    4   19 1
    19    5   20 1
    20    5   21 1
    21    6   22 1
    22    6   23 1
@<TRIPOS>MOLECULE
N-acetylpryyolidine
   19    19     0     0     0
SMALL
NO_CHARGES

@<TRIPOS>ATOM
      1 C1         -0.8576   -2.3754    3.1485 C.2       1 <0>         0.0000
      2 C2         -0.1848   -1.0587   -0.2182 C.3       1 <0>         0.0000
      3 C3          1.0829   -1.8649    0.0355 C.3       1 <0>         0.0000
      4 C4         -1.1613   -1.6371    0.7942 C.3       1 <0>         0.0000
      5 C5          1.0860   -2.0286    1.5489 C.3       1 <0>         0.0000
      6 C6          0.1446   -2.7768    4.2009 C.3       1 <0>         0.0000
      7 N1         -0.3265   -2.0398    1.9165 N.am      1 <0>         0.0000
      8 O1         -2.0624   -2.3650    3.4059 O.2       1 <0>         0.0000
      9 H1         -0.0000    0.0001   -0.0003 H         1 <0>         0.0000
     10 H2         -0.5460   -1.1401   -1.2469 H         1 <0>         0.0000
     11 H3          1.0004   -2.8457   -0.4481 H         1 <0>         0.0000
     12 H4          1.9855   -1.3732   -0.3372 H         1 <0>         0.0000
     13 H5         -1.9253   -0.9217    1.1127 H         1 <0>         0.0000
     14 H6         -1.6560   -2.5353    0.4084 H         1 <0>         0.0000
     15 H7          1.5856   -2.9456    1.8726 H         1 <0>         0.0000
     16 H8          1.5537   -1.1704    2.0433 H         1 <0>         0.0000
     17 H9          0.4578   -1.8938    4.7483 H         1 <0>         0.0000
     18 H10         1.0012   -3.2373    3.7190 H         1 <0>         0.0000
     19 H11        -0.3169   -3.4885    4.8780 H         1 <0>         0.0000
@<TRIPOS>BOND
     1    1    6 1
     2    1    7 am
     3    1    8 2
     4    2    3 1
     5    2    4 1
     6    3    5 1
     7    4    7 1
     8    5    7 1
     9    2    9 1
    10    2   10 1
    11    3   11 1
    12    3   12 1
    13    4   13 1
    14    4   14 1
    15    5   15 1
    16    5   16 1
    17    6   17 1
    18    6   18 1
    19    6   19 1
@<TRIPOS>MOLECULE
morpholine
   15    15     0     0     0
SMALL
NO_CHARGES

@<TRIPOS>ATOM
      1 C1         -1.2071    0.3696    0.6399 C.3       1 <0>         0.0000
      2 C2          0.2626   -1.3894   -0.0634 C.3       1 <0>         0.0000
      3 C3         -0.2374    1.3863    0.0488 C.3       1 <0>         0.0000
      4 C4          1.2055   -0.3403   -0.6416 C.3       1 <0>         0.0000
      5 N1         -1.1220   -0.9071   -0.0762 N.3       1 <0>         0.0000
      6 O1          1.0983    0.8808    0.0925 O.3       1 <0>         0.0000
      7 H1         -0.9783    0.2057    1.7000 H         1 <0>         0.0000
      8 H2         -2.2304    0.7532    0.5766 H         1 <0>         0.0000
      9 H3          0.3306   -2.3116   -0.6495 H         1 <0>         0.0000
     10 H4          0.5532   -1.6269    0.9672 H         1 <0>         0.0000
     11 H5         -0.4980    1.6393   -0.9861 H         1 <0>         0.0000
     12 H6         -0.2629    2.3114    0.6333 H         1 <0>         0.0000
     13 H7          2.2415   -0.6854   -0.5648 H         1 <0>         0.0000
     14 H8          0.9963   -0.1487   -1.7010 H         1 <0>         0.0000
     15 H9         -1.7253   -1.5926    0.3771 H         1 <0>         0.0000
@<TRIPOS>BOND
     1    1    3 1
     2    1    5 1
     3    2    4 1
     4    2    5 1
     5    3    6 1
     6    4    6 1
     7    1    7 1
     8    1    8 1
     9    2    9 1
    10    2   10 1
    11    3   11 1
    12    3   12 1
    13    4   13 1
    14    4   14 1
    15    5   15 1
@<TRIPOS>MOLECULE
N-methylmorpholine
   18    18     0     0     0
SMALL
NO_CHARGES

@<TRIPOS>ATOM
      1 C1          0.3521    0.2583   -1.0073 C.3       1 <0>         0.0000
      2 C2         -1.2153   -1.2330   -2.0646 C.3       1 <0>         0.0000
      3 C3         -0.4555    1.4387   -1.5394 C.3       1 <0>         0.0000
      4 C4         -1.9854   -0.0174   -2.5727 C.3       1 <0>         0.0000
      5 C5          0.9621   -2.0406   -1.4116 C.3       1 <0>         0.0000
      6 N1          0.2058   -0.8932   -1.9086 N.3       1 <0>         0.0000
      7 O1         -1.8315    1.0804   -1.6724 O.3       1 <0>         0.0000
      8 H1          1.4056    0.5516   -0.9335 H         1 <0>         0.0000
      9 H2         -0.0006   -0.0002   -0.0003 H         1 <0>         0.0000
     10 H3         -1.6368   -1.5566   -1.1039 H         1 <0>         0.0000
     11 H4         -1.3338   -2.0534   -2.7816 H         1 <0>         0.0000
     12 H5         -0.3956    2.2767   -0.8374 H         1 <0>         0.0000
     13 H6         -0.0726    1.7872   -2.5061 H         1 <0>         0.0000
     14 H7         -1.6549    0.2822   -3.5749 H         1 <0>         0.0000
     15 H8         -3.0532   -0.2507   -2.6328 H         1 <0>         0.0000
     16 H9          0.8454   -2.8899   -2.0899 H         1 <0>         0.0000
     17 H10         0.6024   -2.3299   -0.4205 H         1 <0>         0.0000
     18 H11         2.0241   -1.7909   -1.3398 H         1 <0>         0.0000
@<TRIPOS>BOND
     1    1    3 1
     2    1    6 1
     3    2    4 1
     4    2    6 1
     5    3    7 1
     6    4    7 1
     7    5    6 1
     8    1    8 1
     9    1    9 1
    10    2   10 1
    11    2   11 1
    12    3   12 1
    13    3   13 1
    14    4   14 1
    15    4   15 1
    16    5   16 1
    17    5   17 1
    18    5   18 1
@<TRIPOS>MOLECULE
benzene
   12    12     0     0     0
SMALL
NO_CHARGES

@<TRIPOS>ATOM
      1 C1          1.8851   -1.0363   -0.1124 C.ar      1 <0>         0.0000
      2 C2          0.8066   -0.4630    0.5610 C.ar      1 <0>         0.0000
      3 C3          2.9210   -1.6309    0.6081 C.ar      1 <0>         0.0000
      4 C4          0.7638   -0.4841    1.9551 C.ar      1 <0>         0.0000
      5 C5          2.8783   -1.6520    2.0022 C.ar      1 <0>         0.0000
      6 C6          1.7997   -1.0786    2.6757 C.ar      1 <0>         0.0000
      7 H1          1.9174   -1.0203   -1.1978 H         1 <0>         0.0000
      8 H2          0.0004    0.0003   -0.0003 H         1 <0>         0.0000
      9 H3          3.7613   -2.0769    0.0841 H         1 <0>         0.0000
     10 H4         -0.0760   -0.0377    2.4791 H         1 <0>         0.0000
     11 H5          3.6848   -2.1150    2.5631 H         1 <0>         0.0000
     12 H6          1.7665   -1.0955    3.7614 H         1 <0>         0.0000
@<TRIPOS>BOND
     1    1    2 ar
     2    1    3 ar
     3    2    4 ar
     4    3    5 ar
     5    4    6 ar
     6    5    6 ar
     7    1    7 1
     8    2    8 1
     9    3    9 1
    10    4   10 1
    11    5   11 1
    12    6   12 1
@<TRIPOS>MOLECULE
toluene
   15    15     0     0     0
SMALL
NO_CHARGES

@<TRIPOS>ATOM
      1 C1          1.8851   -1.0363   -0.1124 C.ar      1 <0>         0.0000
      2 C2          0.8066   -0.4630    0.5610 C.ar      1 <0>         0.0000
      3 C3          2.9210   -1.6309    0.6081 C.ar      1 <0>         0.0000
      4 C4          0.7638   -0.4841    1.9551 C.ar      1 <0>         0.0000
      5 C5          2.8783   -1.6520    2.0022 C.ar      1 <0>         0.0000
      6 C6          1.7997   -1.0786    2.6757 C.ar      1 <0>         0.0000
      7 C7          1.7548   -1.1014    4.1663 C.3       1 <0>         0.0000
      8 H1          1.9176   -1.0210   -1.1980 H         1 <0>         0.0000
      9 H2         -0.0006   -0.0010    0.0001 H         1 <0>         0.0000
     10 H3          3.7604   -2.0783    0.0841 H         1 <0>         0.0000
     11 H4         -0.0804   -0.0348    2.4713 H         1 <0>         0.0000
     12 H5          3.6899   -2.1173    2.5553 H         1 <0>         0.0000
     13 H6          1.2467   -2.0071    4.5193 H         1 <0>         0.0000
     14 H7          2.7647   -1.0791    4.5957 H         1 <0>         0.0000
     15 H8          1.2221   -0.2269    4.5621 H         1 <0>         0.0000
@<TRIPOS>BOND
     1    1    2 ar
     2    1    3 ar
     3    2    4 ar
     4    3    5 ar
     5    4    6 ar
     6    5    6 ar
     7    6    7 1
     8    1    8 1
     9    2    9 1
    10    3   10 1
    11    4   11 1
    12    5   12 1
    13    7   13 1
    14    7   14 1
    15    7   15 1
@<TRIPOS>MOLECULE
ethylbenzene
   18    18     0     0     0
SMALL
NO_CHARGES

@<TRIPOS>ATOM
      1 C1          1.8851   -1.0363   -0.1124 C.ar      1 <0>         0.0000
      2 C2          0.8066   -0.4630    0.5610 C.ar      1 <0>         0.0000
      3 C3          2.9210   -1.6309    0.6081 C.ar      1 <0>         0.0000
      4 C4          0.7638   -0.4841    1.9551 C.ar      1 <0>         0.0000
      5 C5          2.8783   -1.6520    2.0022 C.ar      1 <0>         0.0000
      6 C6          1.7997   -1.0786    2.6757 C.ar      1 <0>         0.0000
      7 C7          2.4188    0.1255    4.7860 C.3       1 <0>         0.0000
      8 C8          1.7548   -1.1014    4.1663 C.3       1 <0>         0.0000
      9 H1          1.9176   -1.0210   -1.1980 H         1 <0>         0.0000
     10 H2         -0.0006   -0.0010    0.0001 H         1 <0>         0.0000
     11 H3          3.7604   -2.0783    0.0841 H         1 <0>         0.0000
     12 H4         -0.0804   -0.0348    2.4713 H         1 <0>         0.0000
     13 H5          3.6899   -2.1173    2.5553 H         1 <0>         0.0000
     14 H6          3.4593    0.2175    4.4566 H         1 <0>         0.0000
     15 H7          2.4136    0.0586    5.8784 H         1 <0>         0.0000
     16 H8          1.8934    1.0430    4.4998 H         1 <0>         0.0000
     17 H9          0.7124   -1.1627    4.5182 H         1 <0>         0.0000
     18 H10         2.2459   -2.0095    4.5514 H         1 <0>         0.0000
@<TRIPOS>BOND
     1    1    2 ar
     2    1    3 ar
     3    2    4 ar
     4    3    5 ar
     5    4    6 ar
     6    5    6 ar
     7    6    8 1
     8    7    8 1
     9    1    9 1
    10    2   10 1
    11    3   11 1
    12    4   12 1
    13    5   13 1
    14    7   14 1
    15    7   15 1
    16    7   16 1
    17    8   17 1
    18    8   18 1
@<TRIPOS>MOLECULE
o-xylene
   18    18     0     0     0
SMALL
NO_CHARGES

@<TRIPOS>ATOM
      1 C1          1.8851   -1.0363   -0.1124 C.ar      1 <0>         0.0000
      2 C2          0.8066   -0.4630    0.5610 C.ar      1 <0>         0.0000
      3 C3          2.9210   -1.6309    0.6081 C.ar      1 <0>         0.0000
      4 C4          0.7638   -0.4841    1.9551 C.ar      1 <0>         0.0000
      5 C5          2.8783   -1.6520    2.0022 C.ar      1 <0>         0.0000
      6 C6          1.7997   -1.0786    2.6757 C.ar      1 <0>         0.0000
      7 C7          3.9980   -2.2951    2.7528 C.3       1 <0>         0.0000
      8 C8          1.7323   -1.0885    4.1677 C.3       1 <0>         0.0000
      9 H1          1.9184   -1.0189   -1.1977 H         1 <0>         0.0000
     10 H2          0.0005    0.0001   -0.0007 H         1 <0>         0.0000
     11 H3          3.7577   -2.0734    0.0740 H         1 <0>         0.0000
     12 H4         -0.0811   -0.0352    2.4707 H         1 <0>         0.0000
     13 H5          4.7800   -1.5591    2.9726 H         1 <0>         0.0000
     14 H6          3.6459   -2.7242    3.6989 H         1 <0>         0.0000
     15 H7          4.4421   -3.1156    2.1757 H         1 <0>         0.0000
     16 H8          1.2185   -1.9909    4.5187 H         1 <0>         0.0000
     17 H9          2.7358   -1.0632    4.6099 H         1 <0>         0.0000
     18 H10         1.1945   -0.2103    4.5458 H         1 <0>         0.0000
@<TRIPOS>BOND
     1    1    2 ar
     2    1    3 ar
     3    2    4 ar
     4    3    5 ar
     5    4    6 ar
     6    5    6 ar
     7    5    7 1
     8    6    8 1
     9    1    9 1
    10    2   10 1
    11    3   11 1
    12    4   12 1
    13    7   13 1
    14    7   14 1
    15    7   15 1
    16    8   16 1
    17    8   17 1
    18    8   18 1
@<TRIPOS>MOLECULE
m-xylene
   18    18     0     0     0
SMALL
NO_CHARGES

@<TRIPOS>ATOM
      1 C1          1.8851   -1.0363   -0.1124 C.ar      1 <0>         0.0000
      2 C2          0.8066   -0.4630    0.5610 C.ar      1 <0>         0.0000
      3 C3          2.9210   -1.6309    0.6081 C.ar      1 <0>         0.0000
      4 C4          1.7997   -1.0786    2.6757 C.ar      1 <0>         0.0000
      5 C5          0.7638   -0.4841    1.9551 C.ar      1 <0>         0.0000
      6 C6          2.8783   -1.6520    2.0022 C.ar      1 <0>         0.0000
      7 C7         -0.3905    0.1278    2.6743 C.3       1 <0>         0.0000
      8 C8          3.9863   -2.2872    2.7726 C.3       1 <0>         0.0000
      9 H1          1.9183   -1.0199   -1.1980 H         1 <0>         0.0000
     10 H2          0.0037   -0.0025   -0.0089 H         1 <0>         0.0000
     11 H3          3.7578   -2.0744    0.0751 H         1 <0>         0.0000
     12 H4          1.7665   -1.0963    3.7625 H         1 <0>         0.0000
     13 H5         -1.1815   -0.6161    2.8297 H         1 <0>         0.0000
     14 H6         -0.0867    0.5221    3.6527 H         1 <0>         0.0000
     15 H7         -0.8109    0.9699    2.1092 H         1 <0>         0.0000
     16 H8          4.7659   -1.5495    2.9987 H         1 <0>         0.0000
     17 H9          3.6227   -2.7101    3.7180 H         1 <0>         0.0000
     18 H10         4.4408   -3.1126    2.2094 H         1 <0>         0.0000
@<TRIPOS>BOND
     1    1    2 ar
     2    1    3 ar
     3    2    5 ar
     4    3    6 ar
     5    4    5 ar
     6    4    6 ar
     7    5    7 1
     8    6    8 1
     9    1    9 1
    10    2   10 1
    11    3   11 1
    12    4   12 1
    13    7   13 1
    14    7   14 1
    15    7   15 1
    16    8   16 1
    17    8   17 1
    18    8   18 1
@<TRIPOS>MOLECULE
p-xylene
   18    18     0     0     0
SMALL
NO_CHARGES

@<TRIPOS>ATOM
      1 C1          1.8851   -1.0363   -0.1124 C.ar      1 <0>         0.0000
      2 C2          0.8066   -0.4630    0.5610 C.ar      1 <0>         0.0000
      3 C3          2.8783   -1.6520    2.0022 C.ar      1 <0>         0.0000
      4 C4          1.7997   -1.0786    2.6757 C.ar      1 <0>         0.0000
      5 C5          2.9210   -1.6309    0.6081 C.ar      1 <0>         0.0000
      6 C6          0.7638   -0.4841    1.9551 C.ar      1 <0>         0.0000
      7 C7          4.0745   -2.2440   -0.1111 C.3       1 <0>         0.0000
      8 C8         -0.3890    0.1306    2.6744 C.3       1 <0>         0.0000
      9 H1          1.9098   -1.0158   -1.1988 H         1 <0>         0.0000
     10 H2          0.0048   -0.0006   -0.0085 H         1 <0>         0.0000
     11 H3          3.6818   -2.1121    2.5715 H         1 <0>         0.0000
     12 H4          1.7742   -1.0996    3.7620 H         1 <0>         0.0000
     13 H5          4.8665   -1.5012   -0.2664 H         1 <0>         0.0000
     14 H6          4.4940   -3.0867    0.4537 H         1 <0>         0.0000
     15 H7          3.7702   -2.6379   -1.0897 H         1 <0>         0.0000
     16 H8         -1.1818   -0.6113    2.8298 H         1 <0>         0.0000
     17 H9         -0.0841    0.5241    3.6528 H         1 <0>         0.0000
     18 H10        -0.8073    0.9739    2.1094 H         1 <0>         0.0000
@<TRIPOS>BOND
     1    1    2 ar
     2    1    5 ar
     3    2    6 ar
     4    3    4 ar
     5    3    5 ar
     6    4    6 ar
     7    5    7 1
     8    6    8 1
     9    1    9 1
    10    2   10 1
    11    3   11 1
    12    4   12 1
    13    7   13 1
    14    7   14 1
    15    7   15 1
    16    8   16 1
    17    8   17 1
    18    8   18 1
@<TRIPOS>MOLECULE
n-propylbenzene
   21    21     0     0     0
SMALL
NO_CHARGES

@<TRIPOS>ATOM
      1 C1          1.8851   -1.0363   -0.1124 C.ar      1 <0>         0.0000
      2 C2          0.8066   -0.4630    0.5610 C.ar      1 <0>         0.0000
      3 C3          2.9210   -1.6309    0.6081 C.ar      1 <0>         0.0000
      4 C4          0.7638   -0.4841    1.9551 C.ar      1 <0>         0.0000
      5 C5          2.8783   -1.6520    2.0022 C.ar      1 <0>         0.0000
      6 C6          1.7997   -1.0786    2.6757 C.ar      1 <0>         0.0000
      7 C7          2.3475    0.1277    6.3019 C.3       1 <0>         0.0000
      8 C8          1.7548   -1.1014    4.1663 C.3       1 <0>         0.0000
      9 C9          2.4245    0.1358    4.7834 C.3       1 <0>         0.0000
     10 H1          1.9176   -1.0210   -1.1980 H         1 <0>         0.0000
     11 H2         -0.0006   -0.0010    0.0001 H         1 <0>         0.0000
     12 H3          3.7604   -2.0783    0.0841 H         1 <0>         0.0000
     13 H4         -0.0804   -0.0348    2.4713 H         1 <0>         0.0000
     14 H5          3.6899   -2.1173    2.5553 H         1 <0>         0.0000
     15 H6          1.3079    0.0830    6.6417 H         1 <0>         0.0000
     16 H7          2.8829   -0.7321    6.7172 H         1 <0>         0.0000
     17 H8          2.7989    1.0378    6.7093 H         1 <0>         0.0000
     18 H9          0.7117   -1.1611    4.5212 H         1 <0>         0.0000
     19 H10         2.2474   -2.0090    4.5548 H         1 <0>         0.0000
     20 H11         3.4769    0.1809    4.4777 H         1 <0>         0.0000
     21 H12         1.9453    1.0467    4.4047 H         1 <0>         0.0000
@<TRIPOS>BOND
     1    1    2 ar
     2    1    3 ar
     3    2    4 ar
     4    3    5 ar
     5    4    6 ar
     6    5    6 ar
     7    6    8 1
     8    7    9 1
     9    8    9 1
    10    1   10 1
    11    2   11 1
    12    3   12 1
    13    4   13 1
    14    5   14 1
    15    7   15 1
    16    7   16 1
    17    7   17 1
    18    8   18 1
    19    8   19 1
    20    9   20 1
    21    9   21 1
@<TRIPOS>MOLECULE
isopropylbenzene
   21    21     0     0     0
SMALL
NO_CHARGES

@<TRIPOS>ATOM
      1 C1          1.8851   -1.0363   -0.1124 C.ar      1 <0>         0.0000
      2 C2          0.8066   -0.4630    0.5610 C.ar      1 <0>         0.0000
      3 C3          2.9210   -1.6309    0.6081 C.ar      1 <0>         0.0000
      4 C4          0.7638   -0.4841    1.9551 C.ar      1 <0>         0.0000
      5 C5          2.8783   -1.6520    2.0022 C.ar      1 <0>         0.0000
      6 C6          1.7997   -1.0786    2.6757 C.ar      1 <0>         0.0000
      7 C7          2.4242    0.1356    4.7944 C.3       1 <0>         0.0000
      8 C8          2.3717   -2.3844    4.7546 C.3       1 <0>         0.0000
      9 C9          1.7548   -1.1014    4.1663 C.3       1 <0>         0.0000
     10 H1          1.9176   -1.0210   -1.1980 H         1 <0>         0.0000
     11 H2         -0.0006   -0.0010    0.0001 H         1 <0>         0.0000
     12 H3          3.7604   -2.0783    0.0841 H         1 <0>         0.0000
     13 H4         -0.0804   -0.0348    2.4713 H         1 <0>         0.0000
     14 H5          3.6899   -2.1173    2.5553 H         1 <0>         0.0000
     15 H6          3.4797    0.2104    4.5112 H         1 <0>         0.0000
     16 H7          2.3751    0.1056    5.8884 H         1 <0>         0.0000
     17 H8          1.9236    1.0517    4.4615 H         1 <0>         0.0000
     18 H9          3.4224   -2.4748    4.4570 H         1 <0>         0.0000
     19 H10         1.8459   -3.2790    4.4036 H         1 <0>         0.0000
     20 H11         2.3334   -2.3849    5.8494 H         1 <0>         0.0000
     21 H12         0.7030   -1.0851    4.5102 H         1 <0>         0.0000
@<TRIPOS>BOND
     1    1    2 ar
     2    1    3 ar
     3    2    4 ar
     4    3    5 ar
     5    4    6 ar
     6    5    6 ar
     7    6    9 1
     8    7    9 1
     9    8    9 1
    10    1   10 1
    11    2   11 1
    12    3   12 1
    13    4   13 1
    14    5   14 1
    15    7   15 1
    16    7   16 1
    17    7   17 1
    18    8   18 1
    19    8   19 1
    20    8   20 1
    21    9   21 1
@<TRIPOS>MOLECULE
1,2,3-trimethylbenzene
   21    21     0     0     0
SMALL
NO_CHARGES

@<TRIPOS>ATOM
      1 C1          1.8851   -1.0363   -0.1124 C.ar      1 <0>         0.0000
      2 C2          0.8066   -0.4630    0.5610 C.ar      1 <0>         0.0000
      3 C3          2.9210   -1.6309    0.6081 C.ar      1 <0>         0.0000
      4 C4          0.7638   -0.4841    1.9551 C.ar      1 <0>         0.0000
      5 C5          2.8783   -1.6520    2.0022 C.ar      1 <0>         0.0000
      6 C6          1.7997   -1.0786    2.6757 C.ar      1 <0>         0.0000
      7 C7         -0.4027    0.1365    2.6520 C.3       1 <0>         0.0000
      8 C8          4.0002   -2.2952    2.7501 C.3       1 <0>         0.0000
      9 C9          1.7539   -1.1012    4.1705 C.3       1 <0>         0.0000
     10 H1          1.9188   -1.0191   -1.1981 H         1 <0>         0.0000
     11 H2          0.0044   -0.0027   -0.0099 H         1 <0>         0.0000
     12 H3          3.7565   -2.0752    0.0739 H         1 <0>         0.0000
     13 H4         -1.1952   -0.6059    2.8002 H         1 <0>         0.0000
     14 H5         -0.1117    0.5378    3.6304 H         1 <0>         0.0000
     15 H6         -0.8110    0.9733    2.0720 H         1 <0>         0.0000
     16 H7          4.7818   -1.5588    2.9689 H         1 <0>         0.0000
     17 H8          3.6500   -2.7255    3.6963 H         1 <0>         0.0000
     18 H9          4.4435   -3.1147    2.1711 H         1 <0>         0.0000
     19 H10         1.2459   -2.0069    4.5191 H         1 <0>         0.0000
     20 H11         2.7638   -1.0788    4.5962 H         1 <0>         0.0000
     21 H12         1.2211   -0.2266    4.5617 H         1 <0>         0.0000
@<TRIPOS>BOND
     1    1    2 ar
     2    1    3 ar
     3    2    4 ar
     4    3    5 ar
     5    4    6 ar
     6    4    7 1
     7    5    6 ar
     8    5    8 1
     9    6    9 1
    10    1   10 1
    11    2   11 1
    12    3   12 1
    13    7   13 1
    14    7   14 1
    15    7   15 1
    16    8   16 1
    17    8   17 1
    18    8   18 1
    19    9   19 1
    20    9   20 1
    21    9   21 1
@<TRIPOS>MOLECULE
1,2,4-trimethylbenzene
   21    21     0     0     0
SMALL
NO_CHARGES

@<TRIPOS>ATOM
      1 C1          1.8851   -1.0363   -0.1124 C.ar      1 <0>         0.0000
      2 C2          0.8066   -0.4630    0.5610 C.ar      1 <0>         0.0000
      3 C3          2.8783   -1.6520    2.0022 C.ar      1 <0>         0.0000
      4 C4          2.9210   -1.6309    0.6081 C.ar      1 <0>         0.0000
      5 C5          0.7638   -0.4841    1.9551 C.ar      1 <0>         0.0000
      6 C6          1.7997   -1.0786    2.6757 C.ar      1 <0>         0.0000
      7 C7          4.0743   -2.2433   -0.1121 C.3       1 <0>         0.0000
      8 C8         -0.4007    0.1371    2.6541 C.3       1 <0>         0.0000
      9 C9          1.7757   -1.1129    4.1687 C.3       1 <0>         0.0000
     10 H1          1.9103   -1.0148   -1.1988 H         1 <0>         0.0000
     11 H2          0.0048   -0.0016   -0.0096 H         1 <0>         0.0000
     12 H3          3.6860   -2.1163    2.5632 H         1 <0>         0.0000
     13 H4          4.8660   -1.5001   -0.2674 H         1 <0>         0.0000
     14 H5          4.4943   -3.0863    0.4519 H         1 <0>         0.0000
     15 H6          3.7695   -2.6366   -1.0908 H         1 <0>         0.0000
     16 H7         -1.1940   -0.6045    2.8030 H         1 <0>         0.0000
     17 H8         -0.1081    0.5373    3.6326 H         1 <0>         0.0000
     18 H9         -0.8092    0.9749    2.0756 H         1 <0>         0.0000
     19 H10         2.2659   -0.2215    4.5769 H         1 <0>         0.0000
     20 H11         0.7470   -1.1508    4.5477 H         1 <0>         0.0000
     21 H12         2.2905   -2.0022    4.5529 H         1 <0>         0.0000
@<TRIPOS>BOND
     1    1    2 ar
     2    1    4 ar
     3    2    5 ar
     4    3    4 ar
     5    3    6 ar
     6    4    7 1
     7    5    6 ar
     8    5    8 1
     9    6    9 1
    10    1   10 1
    11    2   11 1
    12    3   12 1
    13    7   13 1
    14    7   14 1
    15    7   15 1
    16    8   16 1
    17    8   17 1
    18    8   18 1
    19    9   19 1
    20    9   20 1
    21    9   21 1
@<TRIPOS>MOLECULE
1,3,5-trimethylbenzene
   21    21     0     0     0
SMALL
NO_CHARGES

@<TRIPOS>ATOM
      1 C1          1.8851   -1.0363   -0.1124 C.ar      1 <0>         0.0000
      2 C2          0.7638   -0.4841    1.9551 C.ar      1 <0>         0.0000
      3 C3          2.8783   -1.6520    2.0022 C.ar      1 <0>         0.0000
      4 C4          0.8066   -0.4630    0.5610 C.ar      1 <0>         0.0000
      5 C5          2.9210   -1.6309    0.6081 C.ar      1 <0>         0.0000
      6 C6          1.7997   -1.0786    2.6757 C.ar      1 <0>         0.0000
      7 C7         -0.3006    0.1729   -0.2100 C.3       1 <0>         0.0000
      8 C8          4.0748   -2.2437   -0.1114 C.3       1 <0>         0.0000
      9 C9          1.7536   -1.1011    4.1663 C.3       1 <0>         0.0000
     10 H1          1.9188   -1.0205   -1.1993 H         1 <0>         0.0000
     11 H2         -0.0772   -0.0370    2.4801 H         1 <0>         0.0000
     12 H3          3.6857   -2.1154    2.5642 H         1 <0>         0.0000
     13 H4         -1.0805   -0.5643   -0.4366 H         1 <0>         0.0000
     14 H5         -0.7550    0.9985    0.3527 H         1 <0>         0.0000
     15 H6          0.0640    0.5956   -1.1553 H         1 <0>         0.0000
     16 H7          4.8665   -1.5006   -0.2665 H         1 <0>         0.0000
     17 H8          4.4943   -3.0864    0.4532 H         1 <0>         0.0000
     18 H9          3.7703   -2.6372   -1.0900 H         1 <0>         0.0000
     19 H10         1.2454   -2.0068    4.5190 H         1 <0>         0.0000
     20 H11         2.7633   -1.0787    4.5965 H         1 <0>         0.0000
     21 H12         1.2205   -0.2265    4.5615 H         1 <0>         0.0000
@<TRIPOS>BOND
     1    1    4 ar
     2    1    5 ar
     3    2    4 ar
     4    2    6 ar
     5    3    5 ar
     6    3    6 ar
     7    4    7 1
     8    5    8 1
     9    6    9 1
    10    1   10 1
    11    2   11 1
    12    3   12 1
    13    7   13 1
    14    7   14 1
    15    7   15 1
    16    8   16 1
    17    8   17 1
    18    8   18 1
    19    9   19 1
    20    9   20 1
    21    9   21 1
@<TRIPOS>MOLECULE
2-ethyltoluene
   21    21     0     0     0
SMALL
NO_CHARGES

@<TRIPOS>ATOM
      1 C1          1.8851   -1.0363   -0.1124 C.ar      1 <0>         0.0000
      2 C2          0.8066   -0.4630    0.5610 C.ar      1 <0>         0.0000
      3 C3          2.9210   -1.6309    0.6081 C.ar      1 <0>         0.0000
      4 C4          0.7638   -0.4841    1.9551 C.ar      1 <0>         0.0000
      5 C5          2.8783   -1.6520    2.0022 C.ar      1 <0>         0.0000
      6 C6          1.7997   -1.0786    2.6757 C.ar      1 <0>         0.0000
      7 C7          3.9980   -2.2951    2.7528 C.3       1 <0>         0.0000
      8 C8          1.3198   -2.4499    4.7192 C.3       1 <0>         0.0000
      9 C9          1.7323   -1.0885    4.1677 C.3       1 <0>         0.0000
     10 H1          1.9184   -1.0189   -1.1977 H         1 <0>         0.0000
     11 H2          0.0005    0.0001   -0.0007 H         1 <0>         0.0000
     12 H3          3.7577   -2.0734    0.0740 H         1 <0>         0.0000
     13 H4         -0.0811   -0.0352    2.4707 H         1 <0>         0.0000
     14 H5          4.7800   -1.5591    2.9726 H         1 <0>         0.0000
     15 H6          3.6459   -2.7242    3.6989 H         1 <0>         0.0000
     16 H7          4.4421   -3.1156    2.1757 H         1 <0>         0.0000
     17 H8          0.3521   -2.7625    4.3122 H         1 <0>         0.0000
     18 H9          1.2336   -2.4148    5.8097 H         1 <0>         0.0000
     19 H10         2.0566   -3.2183    4.4617 H         1 <0>         0.0000
     20 H11         2.7064   -0.8052    4.5959 H         1 <0>         0.0000
     21 H12         1.0231   -0.3246    4.5230 H         1 <0>         0.0000
@<TRIPOS>BOND
     1    1    2 ar
     2    1    3 ar
     3    2    4 ar
     4    3    5 ar
     5    4    6 ar
     6    5    6 ar
     7    5    7 1
     8    6    9 1
     9    8    9 1
    10    1   10 1
    11    2   11 1
    12    3   12 1
    13    4   13 1
    14    7   14 1
    15    7   15 1
    16    7   16 1
    17    8   17 1
    18    8   18 1
    19    8   19 1
    20    9   20 1
    21    9   21 1
@<TRIPOS>MOLECULE
4-ethyltoluene
   21    21     0     0     0
SMALL
NO_CHARGES

@<TRIPOS>ATOM
      1 C1          1.8851   -1.0363   -0.1124 C.ar      1 <0>         0.0000
      2 C2          2.8783   -1.6520    2.0022 C.ar      1 <0>         0.0000
      3 C3          0.8066   -0.4630    0.5610 C.ar      1 <0>         0.0000
      4 C4          1.7997   -1.0786    2.6757 C.ar      1 <0>         0.0000
      5 C5          2.9210   -1.6309    0.6081 C.ar      1 <0>         0.0000
      6 C6          0.7638   -0.4841    1.9551 C.ar      1 <0>         0.0000
      7 C7          4.0745   -2.2440   -0.1111 C.3       1 <0>         0.0000
      8 C8         -0.1553    1.6052    2.9925 C.3       1 <0>         0.0000
      9 C9         -0.3890    0.1306    2.6744 C.3       1 <0>         0.0000
     10 H1          1.9098   -1.0158   -1.1988 H         1 <0>         0.0000
     11 H2          3.6818   -2.1121    2.5715 H         1 <0>         0.0000
     12 H3          0.0048   -0.0006   -0.0085 H         1 <0>         0.0000
     13 H4          1.7742   -1.0996    3.7620 H         1 <0>         0.0000
     14 H5          4.8665   -1.5012   -0.2664 H         1 <0>         0.0000
     15 H6          4.4940   -3.0867    0.4537 H         1 <0>         0.0000
     16 H7          3.7702   -2.6379   -1.0897 H         1 <0>         0.0000
     17 H8          0.7552    1.7395    3.5864 H         1 <0>         0.0000
     18 H9         -0.9949    2.0166    3.5615 H         1 <0>         0.0000
     19 H10        -0.0473    2.1927    2.0745 H         1 <0>         0.0000
     20 H11        -1.3102    0.0328    2.0780 H         1 <0>         0.0000
     21 H12        -0.5903   -0.4123    3.6120 H         1 <0>         0.0000
@<TRIPOS>BOND
     1    1    3 ar
     2    1    5 ar
     3    2    4 ar
     4    2    5 ar
     5    3    6 ar
     6    4    6 ar
     7    5    7 1
     8    6    9 1
     9    8    9 1
    10    1   10 1
    11    2   11 1
    12    3   12 1
    13    4   13 1
    14    7   14 1
    15    7   15 1
    16    7   16 1
    17    8   17 1
    18    8   18 1
    19    8   19 1
    20    9   20 1
    21    9   21 1
@<TRIPOS>MOLECULE
n-butylbenzene
   24    24     0     0     0
SMALL
NO_CHARGES

@<TRIPOS>ATOM
      1 C1          2.2450    2.5509   -6.6784 C.ar      1 <0>         0.0000
      2 C2          2.5149    3.5014   -5.6938 C.ar      1 <0>         0.0000
      3 C3          1.1764    1.6681   -6.5213 C.ar      1 <0>         0.0000
      4 C4          1.7165    3.5690   -4.5521 C.ar      1 <0>         0.0000
      5 C5          0.3780    1.7357   -5.3796 C.ar      1 <0>         0.0000
      6 C6          0.6480    2.6862   -4.3949 C.ar      1 <0>         0.0000
      7 C7         -0.0658    0.9898    0.2887 C.3       1 <0>         0.0000
      8 C8         -0.2155    2.7586   -3.1608 C.3       1 <0>         0.0000
      9 C9         -0.5747    1.9106   -0.8088 C.3       1 <0>         0.0000
     10 C10         0.3242    1.8603   -2.0442 C.3       1 <0>         0.0000
     11 H1          2.8660    2.4993   -7.5679 H         1 <0>         0.0000
     12 H2          3.3462    4.1895   -5.8165 H         1 <0>         0.0000
     13 H3          0.9653    0.9288   -7.2881 H         1 <0>         0.0000
     14 H4          1.9344    4.3126   -3.7900 H         1 <0>         0.0000
     15 H5         -0.4523    1.0438   -5.2656 H         1 <0>         0.0000
     16 H6         -0.0066   -0.0450   -0.0635 H         1 <0>         0.0000
     17 H7         -0.7251    1.0187    1.1621 H         1 <0>         0.0000
     18 H8          0.9350    1.2975    0.6080 H         1 <0>         0.0000
     19 H9         -0.2719    3.7966   -2.8084 H         1 <0>         0.0000
     20 H10        -1.2435    2.4649   -3.4098 H         1 <0>         0.0000
     21 H11        -0.6219    2.9361   -0.4242 H         1 <0>         0.0000
     22 H12        -1.5959    1.6175   -1.0789 H         1 <0>         0.0000
     23 H13         1.3399    2.1741   -1.7716 H         1 <0>         0.0000
     24 H14         0.3992    0.8255   -2.4017 H         1 <0>         0.0000
@<TRIPOS>BOND
     1    1    2 ar
     2    1    3 ar
     3    2    4 ar
     4    3    5 ar
     5    4    6 ar
     6    5    6 ar
     7    6    8 1
     8    7    9 1
     9    8   10 1
    10    9   10 1
    11    1   11 1
    12    2   12 1
    13    3   13 1
    14    4   14 1
    15    5   15 1
    16    7   16 1
    17    7   17 1
    18    7   18 1
    19    8   19 1
    20    8   20 1
    21    9   21 1
    22    9   22 1
    23   10   23 1
    24   10   24 1
@<TRIPOS>MOLECULE
isobutylbenzene
   24    24     0     0     0
SMALL
NO_CHARGES

@<TRIPOS>ATOM
      1 C1         -2.3920    3.1789   -2.1108 C.ar      1 <0>         0.0000
      2 C2         -1.0199    2.9555   -1.9968 C.ar      1 <0>         0.0000
      3 C3         -3.2117    3.0728   -0.9871 C.ar      1 <0>         0.0000
      4 C4         -0.4675    2.6259   -0.7591 C.ar      1 <0>         0.0000
      5 C5         -2.6592    2.7431    0.2505 C.ar      1 <0>         0.0000
      6 C6         -1.2871    2.5197    0.3646 C.ar      1 <0>         0.0000
      7 C7          0.1917   -0.1014    0.9400 C.3       1 <0>         0.0000
      8 C8         -0.0721    0.3940    3.3790 C.3       1 <0>         0.0000
      9 C9         -0.6900    2.1628    1.7040 C.3       1 <0>         0.0000
     10 C10        -0.6434    0.6475    1.9816 C.3       1 <0>         0.0000
     11 H1         -2.8218    3.4369   -3.0743 H         1 <0>         0.0000
     12 H2         -0.3814    3.0392   -2.8713 H         1 <0>         0.0000
     13 H3         -4.2798    3.2477   -1.0753 H         1 <0>         0.0000
     14 H4          0.6027    2.4534   -0.6797 H         1 <0>         0.0000
     15 H5         -3.3056    2.6625    1.1205 H         1 <0>         0.0000
     16 H6          1.2232    0.2664    0.9185 H         1 <0>         0.0000
     17 H7         -0.2307    0.0093   -0.0635 H         1 <0>         0.0000
     18 H8          0.2207   -1.1732    1.1646 H         1 <0>         0.0000
     19 H9          0.9483    0.7835    3.4589 H         1 <0>         0.0000
     20 H10        -0.6808    0.8772    4.1511 H         1 <0>         0.0000
     21 H11        -0.0367   -0.6787    3.5963 H         1 <0>         0.0000
     22 H12         0.3182    2.5893    1.7889 H         1 <0>         0.0000
     23 H13        -1.2868    2.6637    2.4783 H         1 <0>         0.0000
     24 H14        -1.6618    0.2391    1.9586 H         1 <0>         0.0000
@<TRIPOS>BOND
     1    1    2 ar
     2    1    3 ar
     3    2    4 ar
     4    3    5 ar
     5    4    6 ar
     6    5    6 ar
     7    6    9 1
     8    7   10 1
     9    8   10 1
    10    9   10 1
    11    1   11 1
    12    2   12 1
    13    3   13 1
    14    4   14 1
    15    5   15 1
    16    7   16 1
    17    7   17 1
    18    7   18 1
    19    8   19 1
    20    8   20 1
    21    8   21 1
    22    9   22 1
    23    9   23 1
    24   10   24 1
@<TRIPOS>MOLECULE
sec-butylbenzene
   24    24     0     0     0
SMALL
NO_CHARGES

@<TRIPOS>ATOM
      1 C1         -2.8505   -3.0758    1.4950 C.ar      1 <0>         0.0000
      2 C2         -1.4649   -3.0052    1.6389 C.ar      1 <0>         0.0000
      3 C3         -3.6331   -1.9420    1.7136 C.ar      1 <0>         0.0000
      4 C4         -0.8619   -1.8008    2.0016 C.ar      1 <0>         0.0000
      5 C5         -3.0301   -0.7377    2.0763 C.ar      1 <0>         0.0000
      6 C6         -1.6445   -0.6670    2.2202 C.ar      1 <0>         0.0000
      7 C7          0.3475    0.8548    0.4435 C.3       1 <0>         0.0000
      8 C8         -0.8826    0.7539    4.1414 C.3       1 <0>         0.0000
      9 C9          0.3956    0.8503    1.9666 C.3       1 <0>         0.0000
     10 C10        -0.9885    0.6449    2.6154 C.3       1 <0>         0.0000
     11 H1         -3.3198   -4.0133    1.2113 H         1 <0>         0.0000
     12 H2         -0.8553   -3.8876    1.4677 H         1 <0>         0.0000
     13 H3         -4.7118   -1.9964    1.6006 H         1 <0>         0.0000
     14 H4          0.2184   -1.7552    2.1116 H         1 <0>         0.0000
     15 H5         -3.6479    0.1405    2.2447 H         1 <0>         0.0000
     16 H6         -0.3562    1.6168    0.0930 H         1 <0>         0.0000
     17 H7          1.3262    1.0820    0.0102 H         1 <0>         0.0000
     18 H8          0.0151   -0.1146    0.0588 H         1 <0>         0.0000
     19 H9         -0.2541   -0.0368    4.5654 H         1 <0>         0.0000
     20 H10        -0.4457    1.7162    4.4295 H         1 <0>         0.0000
     21 H11        -1.8709    0.6829    4.6096 H         1 <0>         0.0000
     22 H12         1.1040    0.0827    2.3002 H         1 <0>         0.0000
     23 H13         0.8042    1.8143    2.2954 H         1 <0>         0.0000
     24 H14        -1.6319    1.4717    2.2846 H         1 <0>         0.0000
@<TRIPOS>BOND
     1    1    2 ar
     2    1    3 ar
     3    2    4 ar
     4    3    5 ar
     5    4    6 ar
     6    5    6 ar
     7    6   10 1
     8    7    9 1
     9    8   10 1
    10    9   10 1
    11    1   11 1
    12    2   12 1
    13    3   13 1
    14    4   14 1
    15    5   15 1
    16    7   16 1
    17    7   17 1
    18    7   18 1
    19    8   19 1
    20    8   20 1
    21    8   21 1
    22    9   22 1
    23    9   23 1
    24   10   24 1
@<TRIPOS>MOLECULE
tert-butylbenzene
   24    24     0     0     0
SMALL
NO_CHARGES

@<TRIPOS>ATOM
      1 C1         -2.1406   -2.8050    3.6043 C.ar      1 <0>         0.0000
      2 C2         -0.9830   -2.0536    3.4020 C.ar      1 <0>         0.0000
      3 C3         -3.2818   -2.5459    2.8452 C.ar      1 <0>         0.0000
      4 C4         -0.9665   -1.0432    2.4406 C.ar      1 <0>         0.0000
      5 C5         -3.2653   -1.5355    1.8838 C.ar      1 <0>         0.0000
      6 C6         -2.1077   -0.7840    1.6815 C.ar      1 <0>         0.0000
      7 C7         -1.0055    0.0255   -0.4341 C.3       1 <0>         0.0000
      8 C8         -1.7775    1.6835    1.2954 C.3       1 <0>         0.0000
      9 C9         -3.4286    0.4950   -0.1338 C.3       1 <0>         0.0000
     10 C10        -2.0904    0.3299    0.6216 C.3       1 <0>         0.0000
     11 H1         -2.1528   -3.5926    4.3520 H         1 <0>         0.0000
     12 H2         -0.0940   -2.2559    3.9922 H         1 <0>         0.0000
     13 H3         -4.1829   -3.1314    3.0017 H         1 <0>         0.0000
     14 H4         -0.0601   -0.4627    2.2899 H         1 <0>         0.0000
     15 H5         -4.1592   -1.3406    1.2971 H         1 <0>         0.0000
     16 H6         -0.9722    0.8062   -1.2031 H         1 <0>         0.0000
     17 H7         -0.0039   -0.0333    0.0056 H         1 <0>         0.0000
     18 H8         -1.2009   -0.9294   -0.9363 H         1 <0>         0.0000
     19 H9         -1.7547    2.5093    0.5760 H         1 <0>         0.0000
     20 H10        -2.5344    1.9349    2.0476 H         1 <0>         0.0000
     21 H11        -0.8033    1.6580    1.7980 H         1 <0>         0.0000
     22 H12        -3.3662    1.2993   -0.8768 H         1 <0>         0.0000
     23 H13        -3.7038   -0.4195   -0.6722 H         1 <0>         0.0000
     24 H14        -4.2482    0.7498    0.5482 H         1 <0>         0.0000
@<TRIPOS>BOND
     1    1    2 ar
     2    1    3 ar
     3    2    4 ar
     4    3    5 ar
     5    4    6 ar
     6    5    6 ar
     7    6   10 1
     8    7   10 1
     9    8   10 1
    10    9   10 1
    11    1   11 1
    12    2   12 1
    13    3   13 1
    14    4   14 1
    15    5   15 1
    16    7   16 1
    17    7   17 1
    18    7   18 1
    19    8   19 1
    20    8   20 1
    21    8   21 1
    22    9   22 1
    23    9   23 1
    24    9   24 1
@<TRIPOS>MOLECULE
4-isopropyltoluene
   24    24     0     0     0
SMALL
NO_CHARGES

@<TRIPOS>ATOM
      1 C1          1.8851   -1.0363   -0.1124 C.ar      1 <0>         0.0000
      2 C2          2.8783   -1.6520    2.0022 C.ar      1 <0>         0.0000
      3 C3          0.8066   -0.4630    0.5610 C.ar      1 <0>         0.0000
      4 C4          1.7997   -1.0786    2.6757 C.ar      1 <0>         0.0000
      5 C5          2.9210   -1.6309    0.6081 C.ar      1 <0>         0.0000
      6 C6          0.7638   -0.4841    1.9551 C.ar      1 <0>         0.0000
      7 C7          4.0745   -2.2440   -0.1111 C.3       1 <0>         0.0000
      8 C8          0.0373    1.3069    3.5730 C.3       1 <0>         0.0000
      9 C9         -1.1829   -0.8978    3.5020 C.3       1 <0>         0.0000
     10 C10        -0.3890    0.1306    2.6744 C.3       1 <0>         0.0000
     11 H1          1.9098   -1.0158   -1.1988 H         1 <0>         0.0000
     12 H2          3.6818   -2.1121    2.5715 H         1 <0>         0.0000
     13 H3          0.0048   -0.0006   -0.0085 H         1 <0>         0.0000
     14 H4          1.7742   -1.0996    3.7620 H         1 <0>         0.0000
     15 H5          4.8665   -1.5012   -0.2664 H         1 <0>         0.0000
     16 H6          4.4940   -3.0867    0.4537 H         1 <0>         0.0000
     17 H7          3.7702   -2.6379   -1.0897 H         1 <0>         0.0000
     18 H8          0.7549    0.9906    4.3379 H         1 <0>         0.0000
     19 H9         -0.8223    1.7504    4.0871 H         1 <0>         0.0000
     20 H10         0.5120    2.0927    2.9747 H         1 <0>         0.0000
     21 H11        -0.5372   -1.3632    4.2551 H         1 <0>         0.0000
     22 H12        -1.5876   -1.6949    2.8688 H         1 <0>         0.0000
     23 H13        -2.0241   -0.4308    4.0259 H         1 <0>         0.0000
     24 H14        -1.1061    0.5509    1.9439 H         1 <0>         0.0000
@<TRIPOS>BOND
     1    1    3 ar
     2    1    5 ar
     3    2    4 ar
     4    2    5 ar
     5    3    6 ar
     6    4    6 ar
     7    5    7 1
     8    6   10 1
     9    8   10 1
    10    9   10 1
    11    1   11 1
    12    2   12 1
    13    3   13 1
    14    4   14 1
    15    7   15 1
    16    7   16 1
    17    7   17 1
    18    8   18 1
    19    8   19 1
    20    8   20 1
    21    9   21 1
    22    9   22 1
    23    9   23 1
    24   10   24 1
@<TRIPOS>MOLECULE
n-pentylbenzene
   27    27     0     0     0
SMALL
NO_CHARGES

@<TRIPOS>ATOM
      1 C1          0.9915   -3.7684   -7.1578 C.ar      1 <0>         0.0000
      2 C2          1.9678   -3.2588   -6.3018 C.ar      1 <0>         0.0000
      3 C3         -0.0359   -2.9426   -7.6143 C.ar      1 <0>         0.0000
      4 C4          1.9167   -1.9234   -5.9022 C.ar      1 <0>         0.0000
      5 C5         -0.0870   -1.6072   -7.2146 C.ar      1 <0>         0.0000
      6 C6          0.8893   -1.0976   -6.3586 C.ar      1 <0>         0.0000
      7 C7         -1.0813    3.6698   -2.6105 C.3       1 <0>         0.0000
      8 C8          0.8337    0.3368   -5.9296 C.3       1 <0>         0.0000
      9 C9         -0.9254    2.2040   -2.9832 C.3       1 <0>         0.0000
     10 C10         0.0276    0.5585   -4.6460 C.3       1 <0>         0.0000
     11 C11        -0.0928    2.0347   -4.2546 C.3       1 <0>         0.0000
     12 H1          1.0322   -4.8079   -7.4700 H         1 <0>         0.0000
     13 H2          2.7684   -3.9013   -5.9472 H         1 <0>         0.0000
     14 H3         -0.7955   -3.3388   -8.2816 H         1 <0>         0.0000
     15 H4          2.6815   -1.5349   -5.2348 H         1 <0>         0.0000
     16 H5         -0.8912   -0.9713   -7.5752 H         1 <0>         0.0000
     17 H6         -1.5551    4.2322   -3.4214 H         1 <0>         0.0000
     18 H7         -1.7061    3.7695   -1.7176 H         1 <0>         0.0000
     19 H8         -0.1093    4.1263   -2.3978 H         1 <0>         0.0000
     20 H9          1.8502    0.7308   -5.8080 H         1 <0>         0.0000
     21 H10         0.3778    0.9169   -6.7423 H         1 <0>         0.0000
     22 H11        -0.4492    1.6701   -2.1525 H         1 <0>         0.0000
     23 H12        -1.9185    1.7624   -3.1263 H         1 <0>         0.0000
     24 H13         0.4690   -0.0068   -3.8159 H         1 <0>         0.0000
     25 H14        -0.9793    0.1520   -4.8034 H         1 <0>         0.0000
     26 H15         0.9028    2.4626   -4.0905 H         1 <0>         0.0000
     27 H16        -0.5573    2.5959   -5.0744 H         1 <0>         0.0000
@<TRIPOS>BOND
     1    1    2 ar
     2    1    3 ar
     3    2    4 ar
     4    3    5 ar
     5    4    6 ar
     6    5    6 ar
     7    6    8 1
     8    7    9 1
     9    8   10 1
    10    9   11 1
    11   10   11 1
    12    1   12 1
    13    2   13 1
    14    3   14 1
    15    4   15 1
    16    5   16 1
    17    7   17 1
    18    7   18 1
    19    7   19 1
    20    8   20 1
    21    8   21 1
    22    9   22 1
    23    9   23 1
    24   10   24 1
    25   10   25 1
    26   11   26 1
    27   11   27 1
@<TRIPOS>MOLECULE
n-hexylbenzene
   30    30     0     0     0
SMALL
NO_CHARGES

@<TRIPOS>ATOM
      1 C1         -8.1959   -1.8785   -5.4124 C.ar      1 <0>         0.0000
      2 C2         -7.0778   -2.5258   -5.9382 C.ar      1 <0>         0.0000
      3 C3         -8.0483   -0.6623   -4.7455 C.ar      1 <0>         0.0000
      4 C4         -5.8121   -1.9570   -5.7971 C.ar      1 <0>         0.0000
      5 C5         -6.7825   -0.0935   -4.6043 C.ar      1 <0>         0.0000
      6 C6         -5.6644   -0.7408   -5.1301 C.ar      1 <0>         0.0000
      7 C7          0.5127   -0.1990   -0.8196 C.3       1 <0>         0.0000
      8 C8         -4.3060   -0.1298   -4.9781 C.3       1 <0>         0.0000
      9 C9         -0.1514    0.2041   -2.1266 C.3       1 <0>         0.0000
     10 C10        -3.6163   -0.5929   -3.6930 C.3       1 <0>         0.0000
     11 C11        -1.5373   -0.4248   -2.2676 C.3       1 <0>         0.0000
     12 C12        -2.2159    0.0100   -3.5677 C.3       1 <0>         0.0000
     13 H1         -9.1816   -2.3209   -5.5236 H         1 <0>         0.0000
     14 H2         -7.1927   -3.4723   -6.4585 H         1 <0>         0.0000
     15 H3         -8.9187   -0.1575   -4.3369 H         1 <0>         0.0000
     16 H4         -4.9465   -2.4686   -6.2098 H         1 <0>         0.0000
     17 H5         -6.6770    0.8543   -4.0831 H         1 <0>         0.0000
     18 H6         -0.1085    0.1018    0.0297 H         1 <0>         0.0000
     19 H7          0.6543   -1.2834   -0.7696 H         1 <0>         0.0000
     20 H8          1.4906    0.2809   -0.7120 H         1 <0>         0.0000
     21 H9         -4.4002    0.9635   -4.9830 H         1 <0>         0.0000
     22 H10        -3.6940   -0.3916   -5.8505 H         1 <0>         0.0000
     23 H11         0.4851   -0.1054   -2.9638 H         1 <0>         0.0000
     24 H12        -0.2323    1.2966   -2.1668 H         1 <0>         0.0000
     25 H13        -4.2186   -0.3058   -2.8216 H         1 <0>         0.0000
     26 H14        -3.5464   -1.6881   -3.6808 H         1 <0>         0.0000
     27 H15        -1.4485   -1.5179   -2.2470 H         1 <0>         0.0000
     28 H16        -2.1609   -0.1351   -1.4130 H         1 <0>         0.0000
     29 H17        -1.6043   -0.3011   -4.4233 H         1 <0>         0.0000
     30 H18        -2.2832    1.1043   -3.5985 H         1 <0>         0.0000
@<TRIPOS>BOND
     1    1    2 ar
     2    1    3 ar
     3    2    4 ar
     4    3    5 ar
     5    4    6 ar
     6    5    6 ar
     7    6    8 1
     8    7    9 1
     9    8   10 1
    10    9   11 1
    11   10   12 1
    12   11   12 1
    13    1   13 1
    14    2   14 1
    15    3   15 1
    16    4   16 1
    17    5   17 1
    18    7   18 1
    19    7   19 1
    20    7   20 1
    21    8   21 1
    22    8   22 1
    23    9   23 1
    24    9   24 1
    25   10   25 1
    26   10   26 1
    27   11   27 1
    28   11   28 1
    29   12   29 1
    30   12   30 1
@<TRIPOS>MOLECULE
biphenyl
   22    23     0     0     0
SMALL
NO_CHARGES

@<TRIPOS>ATOM
      1 C1          1.8851   -1.0363   -0.1124 C.ar      1 <0>         0.0000
      2 C2          1.6694   -1.1432    6.9097 C.ar      1 <0>         0.0000
      3 C3          0.8066   -0.4630    0.5610 C.ar      1 <0>         0.0000
      4 C4          2.9210   -1.6309    0.6081 C.ar      1 <0>         0.0000
      5 C5          2.8979   -1.1096    6.2501 C.ar      1 <0>         0.0000
      6 C6          0.4836   -1.1555    6.1753 C.ar      1 <0>         0.0000
      7 C7          0.7638   -0.4841    1.9551 C.ar      1 <0>         0.0000
      8 C8          2.8783   -1.6520    2.0022 C.ar      1 <0>         0.0000
      9 C9          2.9407   -1.0882    4.8561 C.ar      1 <0>         0.0000
     10 C10         0.5263   -1.1342    4.7813 C.ar      1 <0>         0.0000
     11 C11         1.7997   -1.0786    2.6757 C.ar      1 <0>         0.0000
     12 C12         1.7549   -1.1005    4.1216 C.ar      1 <0>         0.0000
     13 H1          1.9174   -1.0212   -1.1979 H         1 <0>         0.0000
     14 H2          1.6364   -1.1615    7.9951 H         1 <0>         0.0000
     15 H3         -0.0009   -0.0015    0.0001 H         1 <0>         0.0000
     16 H4          3.7605   -2.0787    0.0844 H         1 <0>         0.0000
     17 H5          3.8214   -1.1017    6.8218 H         1 <0>         0.0000
     18 H6         -0.4734   -1.1831    6.6882 H         1 <0>         0.0000
     19 H7         -0.0840   -0.0332    2.4655 H         1 <0>         0.0000
     20 H8          3.6927   -2.1196    2.5504 H         1 <0>         0.0000
     21 H9          3.9064   -1.0624    4.3566 H         1 <0>         0.0000
     22 H10        -0.4063   -1.1448    4.2221 H         1 <0>         0.0000
@<TRIPOS>BOND
     1    1    3 ar
     2    1    4 ar
     3    2    5 ar
     4    2    6 ar
     5    3    7 ar
     6    4    8 ar
     7    5    9 ar
     8    6   10 ar
     9    7   11 ar
    10    8   11 ar
    11    9   12 ar
    12   10   12 ar
    13   11   12 1
    14    1   13 1
    15    2   14 1
    16    3   15 1
    17    4   16 1
    18    5   17 1
    19    6   18 1
    20    7   19 1
    21    8   20 1
    22    9   21 1
    23   10   22 1
@<TRIPOS>MOLECULE
napthalene
   18    19     0     0     0
SMALL
NO_CHARGES

@<TRIPOS>ATOM
      1 C1         -0.4966   -2.0341    0.4940 C.ar      1 <0>         0.0000
      2 C2          0.3500   -1.0275    0.0392 C.ar      1 <0>         0.0000
      3 C3          3.0228   -5.3167   -0.2210 C.ar      1 <0>         0.0000
      4 C4          3.8693   -4.3100   -0.6758 C.ar      1 <0>         0.0000
      5 C5         -0.0479   -3.3542    0.5448 C.ar      1 <0>         0.0000
      6 C6          1.6484   -1.3369   -0.3665 C.ar      1 <0>         0.0000
      7 C7          1.7243   -5.0072    0.1848 C.ar      1 <0>         0.0000
      8 C8          3.4207   -2.9899   -0.7267 C.ar      1 <0>         0.0000
      9 C9          1.2560   -3.6839    0.1403 C.ar      1 <0>         0.0000
     10 C10         2.1168   -2.6602   -0.3222 C.ar      1 <0>         0.0000
     11 H1         -1.5075   -1.7927    0.8092 H         1 <0>         0.0000
     12 H2         -0.0002   -0.0001    0.0003 H         1 <0>         0.0000
     13 H3          3.3725   -6.3445   -0.1817 H         1 <0>         0.0000
     14 H4          4.8796   -4.5522   -0.9922 H         1 <0>         0.0000
     15 H5         -0.7271   -4.1249    0.9034 H         1 <0>         0.0000
     16 H6          2.2931   -0.5340   -0.7180 H         1 <0>         0.0000
     17 H7          1.0801   -5.8101    0.5370 H         1 <0>         0.0000
     18 H8          4.0995   -2.2191   -1.0860 H         1 <0>         0.0000
@<TRIPOS>BOND
     1    1    2 ar
     2    1    5 ar
     3    2    6 ar
     4    3    4 ar
     5    3    7 ar
     6    4    8 ar
     7    5    9 ar
     8    6   10 ar
     9    7    9 ar
    10    8   10 ar
    11    9   10 ar
    12    1   11 1
    13    2   12 1
    14    3   13 1
    15    4   14 1
    16    5   15 1
    17    6   16 1
    18    7   17 1
    19    8   18 1
@<TRIPOS>MOLECULE
1-methylnapthalene
   21    22     0     0     0
SMALL
NO_CHARGES

@<TRIPOS>ATOM
      1 C1         -0.4966   -2.0341    0.4940 C.ar      1 <0>         0.0000
      2 C2          0.3500   -1.0275    0.0392 C.ar      1 <0>         0.0000
      3 C3          3.0228   -5.3167   -0.2210 C.ar      1 <0>         0.0000
      4 C4         -0.0479   -3.3542    0.5448 C.ar      1 <0>         0.0000
      5 C5          1.6484   -1.3369   -0.3665 C.ar      1 <0>         0.0000
      6 C6          1.7243   -5.0072    0.1848 C.ar      1 <0>         0.0000
      7 C7          3.8693   -4.3100   -0.6758 C.ar      1 <0>         0.0000
      8 C8          1.2560   -3.6839    0.1403 C.ar      1 <0>         0.0000
      9 C9          2.1168   -2.6602   -0.3222 C.ar      1 <0>         0.0000
     10 C10         3.4207   -2.9899   -0.7267 C.ar      1 <0>         0.0000
     11 C11         4.3825   -1.9565   -1.2260 C.3       1 <0>         0.0000
     12 H1         -1.5073   -1.7925    0.8097 H         1 <0>         0.0000
     13 H2         -0.0002   -0.0000    0.0001 H         1 <0>         0.0000
     14 H3          3.3726   -6.3442   -0.1818 H         1 <0>         0.0000
     15 H4         -0.7268   -4.1249    0.9038 H         1 <0>         0.0000
     16 H5          2.2793   -0.5228   -0.7155 H         1 <0>         0.0000
     17 H6          1.0800   -5.8102    0.5367 H         1 <0>         0.0000
     18 H7          4.8787   -4.5638   -0.9892 H         1 <0>         0.0000
     19 H8          4.2879   -1.8482   -2.3113 H         1 <0>         0.0000
     20 H9          4.1931   -0.9849   -0.7566 H         1 <0>         0.0000
     21 H10         5.4153   -2.2340   -0.9876 H         1 <0>         0.0000
@<TRIPOS>BOND
     1    1    2 ar
     2    1    4 ar
     3    2    5 ar
     4    3    6 ar
     5    3    7 ar
     6    4    8 ar
     7    5    9 ar
     8    6    8 ar
     9    7   10 ar
    10    8    9 ar
    11    9   10 ar
    12   10   11 1
    13    1   12 1
    14    2   13 1
    15    3   14 1
    16    4   15 1
    17    5   16 1
    18    6   17 1
    19    7   18 1
    20   11   19 1
    21   11   20 1
    22   11   21 1
@<TRIPOS>MOLECULE
1,3-dimethylnapthalene
   24    25     0     0     0
SMALL
NO_CHARGES

@<TRIPOS>ATOM
      1 C1         -0.4966   -2.0341    0.4940 C.ar      1 <0>         0.0000
      2 C2          0.3500   -1.0275    0.0392 C.ar      1 <0>         0.0000
      3 C3         -0.0479   -3.3542    0.5448 C.ar      1 <0>         0.0000
      4 C4          1.6484   -1.3369   -0.3665 C.ar      1 <0>         0.0000
      5 C5          1.7243   -5.0072    0.1848 C.ar      1 <0>         0.0000
      6 C6          3.8693   -4.3100   -0.6758 C.ar      1 <0>         0.0000
      7 C7          1.2560   -3.6839    0.1403 C.ar      1 <0>         0.0000
      8 C8          2.1168   -2.6602   -0.3222 C.ar      1 <0>         0.0000
      9 C9          3.0228   -5.3167   -0.2210 C.ar      1 <0>         0.0000
     10 C10         3.4207   -2.9899   -0.7267 C.ar      1 <0>         0.0000
     11 C11         3.5033   -6.7276   -0.1671 C.3       1 <0>         0.0000
     12 C12         4.3821   -1.9565   -1.2266 C.3       1 <0>         0.0000
     13 H1         -1.5075   -1.7931    0.8096 H         1 <0>         0.0000
     14 H2          0.0001    0.0001    0.0011 H         1 <0>         0.0000
     15 H3         -0.7269   -4.1247    0.9042 H         1 <0>         0.0000
     16 H4          2.2794   -0.5227   -0.7152 H         1 <0>         0.0000
     17 H5          1.0727   -5.8042    0.5390 H         1 <0>         0.0000
     18 H6          4.8809   -4.5542   -0.9922 H         1 <0>         0.0000
     19 H7          3.2903   -7.2400   -1.1133 H         1 <0>         0.0000
     20 H8          4.5844   -6.7735    0.0177 H         1 <0>         0.0000
     21 H9          3.0182   -7.2828    0.6462 H         1 <0>         0.0000
     22 H10         4.2870   -1.8484   -2.3119 H         1 <0>         0.0000
     23 H11         4.1930   -0.9848   -0.7572 H         1 <0>         0.0000
     24 H12         5.4151   -2.2339   -0.9887 H         1 <0>         0.0000
@<TRIPOS>BOND
     1    1    2 ar
     2    1    3 ar
     3    2    4 ar
     4    3    7 ar
     5    4    8 ar
     6    5    7 ar
     7    5    9 ar
     8    6    9 ar
     9    6   10 ar
    10    7    8 ar
    11    8   10 ar
    12    9   11 1
    13   10   12 1
    14    1   13 1
    15    2   14 1
    16    3   15 1
    17    4   16 1
    18    5   17 1
    19    6   18 1
    20   11   19 1
    21   11   20 1
    22   11   21 1
    23   12   22 1
    24   12   23 1
    25   12   24 1
@<TRIPOS>MOLECULE
1,4-dimethylnapthalene
   24    25     0     0     0
SMALL
NO_CHARGES

@<TRIPOS>ATOM
      1 C1         -0.4966   -2.0341    0.4940 C.ar      1 <0>         0.0000
      2 C2          0.3500   -1.0275    0.0392 C.ar      1 <0>         0.0000
      3 C3         -0.0479   -3.3542    0.5448 C.ar      1 <0>         0.0000
      4 C4          1.6484   -1.3369   -0.3665 C.ar      1 <0>         0.0000
      5 C5          3.0228   -5.3167   -0.2210 C.ar      1 <0>         0.0000
      6 C6          3.8693   -4.3100   -0.6758 C.ar      1 <0>         0.0000
      7 C7          1.2560   -3.6839    0.1403 C.ar      1 <0>         0.0000
      8 C8          2.1168   -2.6602   -0.3222 C.ar      1 <0>         0.0000
      9 C9          1.7243   -5.0072    0.1848 C.ar      1 <0>         0.0000
     10 C10         3.4207   -2.9899   -0.7267 C.ar      1 <0>         0.0000
     11 C11         0.8668   -6.1375    0.6632 C.3       1 <0>         0.0000
     12 C12         4.3827   -1.9565   -1.2250 C.3       1 <0>         0.0000
     13 H1         -1.5071   -1.7917    0.8102 H         1 <0>         0.0000
     14 H2         -0.0001    0.0000    0.0001 H         1 <0>         0.0000
     15 H3         -0.7391   -4.1128    0.9049 H         1 <0>         0.0000
     16 H4          2.2790   -0.5223   -0.7154 H         1 <0>         0.0000
     17 H5          3.3832   -6.3416   -0.1863 H         1 <0>         0.0000
     18 H6          4.8791   -4.5639   -0.9885 H         1 <0>         0.0000
     19 H7          0.9875   -6.2701    1.7433 H         1 <0>         0.0000
     20 H8         -0.1903   -5.9470    0.4472 H         1 <0>         0.0000
     21 H9          1.1350   -7.0736    0.1607 H         1 <0>         0.0000
     22 H10         4.2891   -1.8478   -2.3104 H         1 <0>         0.0000
     23 H11         4.1931   -0.9848   -0.7555 H         1 <0>         0.0000
     24 H12         5.4154   -2.2339   -0.9860 H         1 <0>         0.0000
@<TRIPOS>BOND
     1    1    2 ar
     2    1    3 ar
     3    2    4 ar
     4    3    7 ar
     5    4    8 ar
     6    5    6 ar
     7    5    9 ar
     8    6   10 ar
     9    7    8 ar
    10    7    9 ar
    11    8   10 ar
    12    9   11 1
    13   10   12 1
    14    1   13 1
    15    2   14 1
    16    3   15 1
    17    4   16 1
    18    5   17 1
    19    6   18 1
    20   11   19 1
    21   11   20 1
    22   11   21 1
    23   12   22 1
    24   12   23 1
    25   12   24 1
@<TRIPOS>MOLECULE
2,3-dimethylnapthalene
   24    25     0     0     0
SMALL
NO_CHARGES

@<TRIPOS>ATOM
      1 C1         -0.4966   -2.0341    0.4940 C.ar      1 <0>         0.0000
      2 C2          0.3500   -1.0275    0.0392 C.ar      1 <0>         0.0000
      3 C3         -0.0479   -3.3542    0.5448 C.ar      1 <0>         0.0000
      4 C4          1.6484   -1.3369   -0.3665 C.ar      1 <0>         0.0000
      5 C5          1.7243   -5.0072    0.1848 C.ar      1 <0>         0.0000
      6 C6          3.4207   -2.9899   -0.7267 C.ar      1 <0>         0.0000
      7 C7          1.2560   -3.6839    0.1403 C.ar      1 <0>         0.0000
      8 C8          2.1168   -2.6602   -0.3222 C.ar      1 <0>         0.0000
      9 C9          3.0228   -5.3167   -0.2210 C.ar      1 <0>         0.0000
     10 C10         3.8693   -4.3100   -0.6758 C.ar      1 <0>         0.0000
     11 C11         3.4820   -6.7366   -0.1581 C.3       1 <0>         0.0000
     12 C12         5.2631   -4.6185   -1.1152 C.3       1 <0>         0.0000
     13 H1         -1.5071   -1.7924    0.8103 H         1 <0>         0.0000
     14 H2          0.0002    0.0001    0.0005 H         1 <0>         0.0000
     15 H3         -0.7268   -4.1248    0.9042 H         1 <0>         0.0000
     16 H4          2.2927   -0.5337   -0.7181 H         1 <0>         0.0000
     17 H5          1.0717   -5.8036    0.5388 H         1 <0>         0.0000
     18 H6          4.0922   -2.2113   -1.0849 H         1 <0>         0.0000
     19 H7          3.2627   -7.2488   -1.1020 H         1 <0>         0.0000
     20 H8          4.5611   -6.7961    0.0296 H         1 <0>         0.0000
     21 H9          2.9858   -7.2777    0.6571 H         1 <0>         0.0000
     22 H10         5.9535   -4.5458   -0.2670 H         1 <0>         0.0000
     23 H11         5.3314   -5.6292   -1.5361 H         1 <0>         0.0000
     24 H12         5.5949   -3.9240   -1.8969 H         1 <0>         0.0000
@<TRIPOS>BOND
     1    1    2 ar
     2    1    3 ar
     3    2    4 ar
     4    3    7 ar
     5    4    8 ar
     6    5    7 ar
     7    5    9 ar
     8    6    8 ar
     9    6   10 ar
    10    7    8 ar
    11    9   10 ar
    12    9   11 1
    13   10   12 1
    14    1   13 1
    15    2   14 1
    16    3   15 1
    17    4   16 1
    18    5   17 1
    19    6   18 1
    20   11   19 1
    21   11   20 1
    22   11   21 1
    23   12   22 1
    24   12   23 1
    25   12   24 1
@<TRIPOS>MOLECULE
2,6-dimethylnapthalene
   24    25     0     0     0
SMALL
NO_CHARGES

@<TRIPOS>ATOM
      1 C1         -0.0479   -3.3542    0.5448 C.ar      1 <0>         0.0000
      2 C2          3.4207   -2.9899   -0.7267 C.ar      1 <0>         0.0000
      3 C3         -0.4966   -2.0341    0.4940 C.ar      1 <0>         0.0000
      4 C4          3.8693   -4.3100   -0.6758 C.ar      1 <0>         0.0000
      5 C5          1.7243   -5.0072    0.1848 C.ar      1 <0>         0.0000
      6 C6          1.6484   -1.3369   -0.3665 C.ar      1 <0>         0.0000
      7 C7          1.2560   -3.6839    0.1403 C.ar      1 <0>         0.0000
      8 C8          2.1168   -2.6602   -0.3222 C.ar      1 <0>         0.0000
      9 C9          0.3500   -1.0275    0.0392 C.ar      1 <0>         0.0000
     10 C10         3.0228   -5.3167   -0.2210 C.ar      1 <0>         0.0000
     11 C11        -0.1315    0.3832   -0.0149 C.3       1 <0>         0.0000
     12 C12         3.5039   -6.7276   -0.1674 C.3       1 <0>         0.0000
     13 H1         -0.7269   -4.1249    0.9035 H         1 <0>         0.0000
     14 H2          4.0993   -2.2194   -1.0864 H         1 <0>         0.0000
     15 H3         -1.5095   -1.8014    0.8122 H         1 <0>         0.0000
     16 H4          4.8826   -4.5426   -0.9927 H         1 <0>         0.0000
     17 H5          1.0723   -5.8038    0.5395 H         1 <0>         0.0000
     18 H6          2.3010   -0.5401   -0.7193 H         1 <0>         0.0000
     19 H7          0.0810    0.8957    0.9313 H         1 <0>         0.0000
     20 H8          0.3534    0.9386   -0.8281 H         1 <0>         0.0000
     21 H9         -1.2126    0.4282   -0.2001 H         1 <0>         0.0000
     22 H10         3.9631   -6.9375    0.8063 H         1 <0>         0.0000
     23 H11         2.6797   -7.4356   -0.3235 H         1 <0>         0.0000
     24 H12         4.2456   -6.9254   -0.9521 H         1 <0>         0.0000
@<TRIPOS>BOND
     1    1    3 ar
     2    1    7 ar
     3    2    4 ar
     4    2    8 ar
     5    3    9 ar
     6    4   10 ar
     7    5    7 ar
     8    5   10 ar
     9    6    8 ar
    10    6    9 ar
    11    7    8 ar
    12    9   11 1
    13   10   12 1
    14    1   13 1
    15    2   14 1
    16    3   15 1
    17    4   16 1
    18    5   17 1
    19    6   18 1
    20   11   19 1
    21   11   20 1
    22   11   21 1
    23   12   22 1
    24   12   23 1
    25   12   24 1
@<TRIPOS>MOLECULE
1-ethylnapthalene
   24    25     0     0     0
SMALL
NO_CHARGES

@<TRIPOS>ATOM
      1 C1         -0.4966   -2.0341    0.4940 C.ar      1 <0>         0.0000
      2 C2          0.3500   -1.0275    0.0392 C.ar      1 <0>         0.0000
      3 C3          3.0228   -5.3167   -0.2210 C.ar      1 <0>         0.0000
      4 C4         -0.0479   -3.3542    0.5448 C.ar      1 <0>         0.0000
      5 C5          1.6484   -1.3369   -0.3665 C.ar      1 <0>         0.0000
      6 C6          1.7243   -5.0072    0.1848 C.ar      1 <0>         0.0000
      7 C7          3.8693   -4.3100   -0.6758 C.ar      1 <0>         0.0000
      8 C8          1.2560   -3.6839    0.1403 C.ar      1 <0>         0.0000
      9 C9          2.1168   -2.6602   -0.3222 C.ar      1 <0>         0.0000
     10 C10         3.4207   -2.9899   -0.7267 C.ar      1 <0>         0.0000
     11 C11         4.0817   -1.5368   -2.6601 C.3       1 <0>         0.0000
     12 C12         4.3825   -1.9565   -1.2260 C.3       1 <0>         0.0000
     13 H1         -1.5073   -1.7925    0.8097 H         1 <0>         0.0000
     14 H2         -0.0002   -0.0000    0.0001 H         1 <0>         0.0000
     15 H3          3.3726   -6.3442   -0.1818 H         1 <0>         0.0000
     16 H4         -0.7268   -4.1249    0.9038 H         1 <0>         0.0000
     17 H5          2.2793   -0.5228   -0.7155 H         1 <0>         0.0000
     18 H6          1.0800   -5.8102    0.5367 H         1 <0>         0.0000
     19 H7          4.8787   -4.5638   -0.9892 H         1 <0>         0.0000
     20 H8          4.0990   -2.3989   -3.3355 H         1 <0>         0.0000
     21 H9          4.8250   -0.8149   -3.0126 H         1 <0>         0.0000
     22 H10         3.0935   -1.0706   -2.7357 H         1 <0>         0.0000
     23 H11         4.3576   -1.0708   -0.5745 H         1 <0>         0.0000
     24 H12         5.4122   -2.3385   -1.1666 H         1 <0>         0.0000
@<TRIPOS>BOND
     1    1    2 ar
     2    1    4 ar
     3    2    5 ar
     4    3    6 ar
     5    3    7 ar
     6    4    8 ar
     7    5    9 ar
     8    6    8 ar
     9    7   10 ar
    10    8    9 ar
    11    9   10 ar
    12   10   12 1
    13   11   12 1
    14    1   13 1
    15    2   14 1
    16    3   15 1
    17    4   16 1
    18    5   17 1
    19    6   18 1
    20    7   19 1
    21   11   20 1
    22   11   21 1
    23   11   22 1
    24   12   23 1
    25   12   24 1
@<TRIPOS>MOLECULE
acenapthalene
   20    22     0     0     0
SMALL
NO_CHARGES

@<TRIPOS>ATOM
      1 C1          5.5709    1.8280   -0.1611 C.ar      1 <0>         0.0000
      2 C2          1.0839   -0.0568    0.0652 C.ar      1 <0>         0.0000
      3 C3          4.1891    2.0873   -0.2877 C.ar      1 <0>         0.0000
      4 C4          1.8505    1.1050   -0.1700 C.ar      1 <0>         0.0000
      5 C5          6.0497    0.5453    0.1619 C.ar      1 <0>         0.0000
      6 C6          1.6921   -1.2851    0.3817 C.ar      1 <0>         0.0000
      7 C7          3.2559    1.0507   -0.0899 C.ar      1 <0>         0.0000
      8 C8          3.7952   -0.1951    0.2273 C.ar      1 <0>         0.0000
      9 C9          5.1308   -0.4685    0.3553 C.ar      1 <0>         0.0000
     10 C10         3.0709   -1.3337    0.4590 C.ar      1 <0>         0.0000
     11 C11         5.2569   -1.8802    0.6918 C.2       1 <0>         0.0000
     12 C12         4.0178   -2.4008    0.7542 C.2       1 <0>         0.0000
     13 H1          6.2795    2.6379   -0.3168 H         1 <0>         0.0000
     14 H2         -0.0000   -0.0001    0.0001 H         1 <0>         0.0000
     15 H3          3.8539    3.0903   -0.5384 H         1 <0>         0.0000
     16 H4          1.3481    2.0376   -0.4125 H         1 <0>         0.0000
     17 H5          7.1157    0.3665    0.2548 H         1 <0>         0.0000
     18 H6          1.0849   -2.1666    0.5590 H         1 <0>         0.0000
     19 H7          6.1891   -2.3944    0.8568 H         1 <0>         0.0000
     20 H8          3.7484   -3.4191    0.9796 H         1 <0>         0.0000
@<TRIPOS>BOND
     1    1    3 ar
     2    1    5 ar
     3    2    4 ar
     4    2    6 ar
     5    3    7 ar
     6    4    7 ar
     7    5    9 ar
     8    6   10 ar
     9    7    8 ar
    10    8    9 ar
    11    8   10 ar
    12    9   11 1
    13   10   12 1
    14   11   12 2
    15    1   13 1
    16    2   14 1
    17    3   15 1
    18    4   16 1
    19    5   17 1
    20    6   18 1
    21   11   19 1
    22   12   20 1
@<TRIPOS>MOLECULE
fluorobenzene
   12    12     0     0     0
SMALL
NO_CHARGES

@<TRIPOS>ATOM
      1 C1          1.8851   -1.0363   -0.1124 C.ar      1 <0>         0.0000
      2 C2          0.8066   -0.4630    0.5610 C.ar      1 <0>         0.0000
      3 C3          2.9210   -1.6309    0.6081 C.ar      1 <0>         0.0000
      4 C4          0.7638   -0.4841    1.9551 C.ar      1 <0>         0.0000
      5 C5          2.8783   -1.6520    2.0022 C.ar      1 <0>         0.0000
      6 C6          1.7997   -1.0786    2.6757 C.ar      1 <0>         0.0000
      7 F1          1.7584   -1.0989    4.0143 F         1 <0>         0.0000
      8 H1          1.9187   -1.0200   -1.1979 H         1 <0>         0.0000
      9 H2         -0.0000   -0.0000    0.0000 H         1 <0>         0.0000
     10 H3          3.7609   -2.0773    0.0839 H         1 <0>         0.0000
     11 H4         -0.0758   -0.0378    2.4796 H         1 <0>         0.0000
     12 H5          3.6847   -2.1150    2.5631 H         1 <0>         0.0000
@<TRIPOS>BOND
     1    1    2 ar
     2    1    3 ar
     3    2    4 ar
     4    3    5 ar
     5    4    6 ar
     6    5    6 ar
     7    6    7 1
     8    1    8 1
     9    2    9 1
    10    3   10 1
    11    4   11 1
    12    5   12 1
@<TRIPOS>MOLECULE
benzotrifluoride
   12    12     0     0     0
SMALL
NO_CHARGES

@<TRIPOS>ATOM
      1 C1          1.8851   -1.0363   -0.1124 C.ar      1 <0>         0.0000
      2 C2          0.7638   -0.4841    1.9551 C.ar      1 <0>         0.0000
      3 C3          2.8783   -1.6520    2.0022 C.ar      1 <0>         0.0000
      4 C4          0.8066   -0.4630    0.5610 C.ar      1 <0>         0.0000
      5 C5          2.9210   -1.6309    0.6081 C.ar      1 <0>         0.0000
      6 C6          1.7997   -1.0786    2.6757 C.ar      1 <0>         0.0000
      7 F1         -0.1877    0.1080   -0.1313 F         1 <0>         0.0000
      8 F2          3.9569   -2.1810   -0.0383 F         1 <0>         0.0000
      9 F3          1.7581   -1.0984    4.0143 F         1 <0>         0.0000
     10 H1          1.9185   -1.0194   -1.1977 H         1 <0>         0.0000
     11 H2         -0.0759   -0.0377    2.4795 H         1 <0>         0.0000
     12 H3          3.6850   -2.1140    2.5632 H         1 <0>         0.0000
@<TRIPOS>BOND
     1    1    4 ar
     2    1    5 ar
     3    2    4 ar
     4    2    6 ar
     5    3    5 ar
     6    3    6 ar
     7    4    7 1
     8    5    8 1
     9    6    9 1
    10    1   10 1
    11    2   11 1
    12    3   12 1
@<TRIPOS>MOLECULE
chlorobenzene
   12    12     0     0     0
SMALL
NO_CHARGES

@<TRIPOS>ATOM
      1 C1          1.8851   -1.0363   -0.1124 C.ar      1 <0>         0.0000
      2 C2          0.8066   -0.4630    0.5610 C.ar      1 <0>         0.0000
      3 C3          2.9210   -1.6309    0.6081 C.ar      1 <0>         0.0000
      4 C4          0.7638   -0.4841    1.9551 C.ar      1 <0>         0.0000
      5 C5          2.8783   -1.6520    2.0022 C.ar      1 <0>         0.0000
      6 C6          1.7997   -1.0786    2.6757 C.ar      1 <0>         0.0000
      7 Cl1         1.7476   -1.1039    4.3957 Cl        1 <0>         0.0000
      8 H1          1.9184   -1.0200   -1.1979 H         1 <0>         0.0000
      9 H2          0.0002   -0.0001   -0.0003 H         1 <0>         0.0000
     10 H3          3.7607   -2.0771    0.0834 H         1 <0>         0.0000
     11 H4         -0.0833   -0.0334    2.4660 H         1 <0>         0.0000
     12 H5          3.6929   -2.1190    2.5501 H         1 <0>         0.0000
@<TRIPOS>BOND
     1    1    2 ar
     2    1    3 ar
     3    2    4 ar
     4    3    5 ar
     5    4    6 ar
     6    5    6 ar
     7    6    7 1
     8    1    8 1
     9    2    9 1
    10    3   10 1
    11    4   11 1
    12    5   12 1
@<TRIPOS>MOLECULE
1,2-dichlorobenzene
   12    12     0     0     0
SMALL
NO_CHARGES

@<TRIPOS>ATOM
      1 C1          1.8851   -1.0363   -0.1124 C.ar      1 <0>         0.0000
      2 C2          0.8066   -0.4630    0.5610 C.ar      1 <0>         0.0000
      3 C3          2.9210   -1.6309    0.6081 C.ar      1 <0>         0.0000
      4 C4          0.7638   -0.4841    1.9551 C.ar      1 <0>         0.0000
      5 C5          2.8783   -1.6520    2.0022 C.ar      1 <0>         0.0000
      6 C6          1.7997   -1.0786    2.6757 C.ar      1 <0>         0.0000
      7 Cl1         4.1911   -2.4035    2.8390 Cl        1 <0>         0.0000
      8 Cl2         1.6892   -1.0728    4.4009 Cl        1 <0>         0.0000
      9 H1          1.9184   -1.0196   -1.1977 H         1 <0>         0.0000
     10 H2          0.0003   -0.0006   -0.0005 H         1 <0>         0.0000
     11 H3          3.7542   -2.0725    0.0670 H         1 <0>         0.0000
     12 H4         -0.0841   -0.0322    2.4635 H         1 <0>         0.0000
@<TRIPOS>BOND
     1    1    2 ar
     2    1    3 ar
     3    2    4 ar
     4    3    5 ar
     5    4    6 ar
     6    5    6 ar
     7    5    7 1
     8    6    8 1
     9    1    9 1
    10    2   10 1
    11    3   11 1
    12    4   12 1
@<TRIPOS>MOLECULE
1,3-dichlorobenzene
   12    12     0     0     0
SMALL
NO_CHARGES

@<TRIPOS>ATOM
      1 C1          1.8851   -1.0363   -0.1124 C.ar      1 <0>         0.0000
      2 C2          0.8066   -0.4630    0.5610 C.ar      1 <0>         0.0000
      3 C3          2.9210   -1.6309    0.6081 C.ar      1 <0>         0.0000
      4 C4          1.7997   -1.0786    2.6757 C.ar      1 <0>         0.0000
      5 C5          0.7638   -0.4841    1.9551 C.ar      1 <0>         0.0000
      6 C6          2.8783   -1.6520    2.0022 C.ar      1 <0>         0.0000
      7 Cl1        -0.5673    0.2229    2.7855 Cl        1 <0>         0.0000
      8 Cl2         4.1566   -2.3852    2.8910 Cl        1 <0>         0.0000
      9 H1          1.9188   -1.0200   -1.1978 H         1 <0>         0.0000
     10 H2          0.0066   -0.0033   -0.0138 H         1 <0>         0.0000
     11 H3          3.7550   -2.0736    0.0699 H         1 <0>         0.0000
     12 H4          1.7670   -1.0947    3.7630 H         1 <0>         0.0000
@<TRIPOS>BOND
     1    1    2 ar
     2    1    3 ar
     3    2    5 ar
     4    3    6 ar
     5    4    5 ar
     6    4    6 ar
     7    5    7 1
     8    6    8 1
     9    1    9 1
    10    2   10 1
    11    3   11 1
    12    4   12 1
@<TRIPOS>MOLECULE
1,4-dichlorobenzene
   12    12     0     0     0
SMALL
NO_CHARGES

@<TRIPOS>ATOM
      1 C1          1.8851   -1.0363   -0.1124 C.ar      1 <0>         0.0000
      2 C2          0.8066   -0.4630    0.5610 C.ar      1 <0>         0.0000
      3 C3          2.8783   -1.6520    2.0022 C.ar      1 <0>         0.0000
      4 C4          1.7997   -1.0786    2.6757 C.ar      1 <0>         0.0000
      5 C5          2.9210   -1.6309    0.6081 C.ar      1 <0>         0.0000
      6 C6          0.7638   -0.4841    1.9551 C.ar      1 <0>         0.0000
      7 Cl1         4.2520   -2.3377   -0.2226 Cl        1 <0>         0.0000
      8 Cl2        -0.5669    0.2233    2.7858 Cl        1 <0>         0.0000
      9 H1          1.9055   -1.0130   -1.1988 H         1 <0>         0.0000
     10 H2          0.0064   -0.0030   -0.0130 H         1 <0>         0.0000
     11 H3          3.6785   -2.1118    2.5762 H         1 <0>         0.0000
     12 H4          1.7792   -1.1023    3.7621 H         1 <0>         0.0000
@<TRIPOS>BOND
     1    1    2 ar
     2    1    5 ar
     3    2    6 ar
     4    3    4 ar
     5    3    5 ar
     6    4    6 ar
     7    5    7 1
     8    6    8 1
     9    1    9 1
    10    2   10 1
    11    3   11 1
    12    4   12 1
@<TRIPOS>MOLECULE
1,2,3-trichlorobenzene
   12    12     0     0     0
SMALL
NO_CHARGES

@<TRIPOS>ATOM
      1 C1          1.8851   -1.0363   -0.1124 C.ar      1 <0>         0.0000
      2 C2          0.8066   -0.4630    0.5610 C.ar      1 <0>         0.0000
      3 C3          2.9210   -1.6309    0.6081 C.ar      1 <0>         0.0000
      4 C4          0.7638   -0.4841    1.9551 C.ar      1 <0>         0.0000
      5 C5          2.8783   -1.6520    2.0022 C.ar      1 <0>         0.0000
      6 C6          1.7997   -1.0786    2.6757 C.ar      1 <0>         0.0000
      7 Cl1        -0.6056    0.2467    2.7198 Cl        1 <0>         0.0000
      8 Cl2         4.1990   -2.4069    2.8268 Cl        1 <0>         0.0000
      9 Cl3         1.7464   -1.1050    4.4130 Cl        1 <0>         0.0000
     10 H1          1.9184   -1.0198   -1.1979 H         1 <0>         0.0000
     11 H2          0.0084   -0.0042   -0.0173 H         1 <0>         0.0000
     12 H3          3.7535   -2.0727    0.0662 H         1 <0>         0.0000
@<TRIPOS>BOND
     1    1    2 ar
     2    1    3 ar
     3    2    4 ar
     4    3    5 ar
     5    4    6 ar
     6    4    7 1
     7    5    6 ar
     8    5    8 1
     9    6    9 1
    10    1   10 1
    11    2   11 1
    12    3   12 1
@<TRIPOS>MOLECULE
1,2,4-trichlorobenzene
   12    12     0     0     0
SMALL
NO_CHARGES

@<TRIPOS>ATOM
      1 C1          1.8851   -1.0363   -0.1124 C.ar      1 <0>         0.0000
      2 C2          0.8066   -0.4630    0.5610 C.ar      1 <0>         0.0000
      3 C3          2.8783   -1.6520    2.0022 C.ar      1 <0>         0.0000
      4 C4          2.9210   -1.6309    0.6081 C.ar      1 <0>         0.0000
      5 C5          0.7638   -0.4841    1.9551 C.ar      1 <0>         0.0000
      6 C6          1.7997   -1.0786    2.6757 C.ar      1 <0>         0.0000
      7 Cl1         4.2503   -2.3398   -0.2238 Cl        1 <0>         0.0000
      8 Cl2        -0.5980    0.2448    2.7312 Cl        1 <0>         0.0000
      9 Cl3         1.8039   -1.1350    4.4036 Cl        1 <0>         0.0000
     10 H1          1.9040   -1.0140   -1.1991 H         1 <0>         0.0000
     11 H2          0.0074   -0.0053   -0.0167 H         1 <0>         0.0000
     12 H3          3.6877   -2.1166    2.5616 H         1 <0>         0.0000
@<TRIPOS>BOND
     1    1    2 ar
     2    1    4 ar
     3    2    5 ar
     4    3    4 ar
     5    3    6 ar
     6    4    7 1
     7    5    6 ar
     8    5    8 1
     9    6    9 1
    10    1   10 1
    11    2   11 1
    12    3   12 1
@<TRIPOS>MOLECULE
1,3,5-trichlorobenzene
   12    12     0     0     0
SMALL
NO_CHARGES

@<TRIPOS>ATOM
      1 C1          1.8851   -1.0363   -0.1124 C.ar      1 <0>         0.0000
      2 C2          0.7638   -0.4841    1.9551 C.ar      1 <0>         0.0000
      3 C3          2.8783   -1.6520    2.0022 C.ar      1 <0>         0.0000
      4 C4          0.8066   -0.4630    0.5610 C.ar      1 <0>         0.0000
      5 C5          2.9210   -1.6309    0.6081 C.ar      1 <0>         0.0000
      6 C6          1.7997   -1.0786    2.6757 C.ar      1 <0>         0.0000
      7 Cl1        -0.4710    0.2711   -0.3284 Cl        1 <0>         0.0000
      8 Cl2         4.2525   -2.3376   -0.2223 Cl        1 <0>         0.0000
      9 Cl3         1.7471   -1.1052    4.3957 Cl        1 <0>         0.0000
     10 H1          1.9177   -1.0202   -1.1999 H         1 <0>         0.0000
     11 H2         -0.0777   -0.0368    2.4802 H         1 <0>         0.0000
     12 H3          3.6864   -2.1158    2.5642 H         1 <0>         0.0000
@<TRIPOS>BOND
     1    1    4 ar
     2    1    5 ar
     3    2    4 ar
     4    2    6 ar
     5    3    5 ar
     6    3    6 ar
     7    4    7 1
     8    5    8 1
     9    6    9 1
    10    1   10 1
    11    2   11 1
    12    3   12 1
@<TRIPOS>MOLECULE
1,2,3,4-tetrachlorobenzene
   12    12     0     0     0
SMALL
NO_CHARGES

@<TRIPOS>ATOM
      1 C1          1.8851   -1.0363   -0.1124 C.ar      1 <0>         0.0000
      2 C2          0.8066   -0.4630    0.5610 C.ar      1 <0>         0.0000
      3 C3          2.9210   -1.6309    0.6081 C.ar      1 <0>         0.0000
      4 C4          0.7638   -0.4841    1.9551 C.ar      1 <0>         0.0000
      5 C5          2.8783   -1.6520    2.0022 C.ar      1 <0>         0.0000
      6 C6          1.7997   -1.0786    2.6757 C.ar      1 <0>         0.0000
      7 Cl1         4.2214   -2.3236   -0.3001 Cl        1 <0>         0.0000
      8 Cl2        -0.6076    0.2476    2.7161 Cl        1 <0>         0.0000
      9 Cl3         4.1770   -2.3967    2.8893 Cl        1 <0>         0.0000
     10 Cl4         1.7351   -1.0964    4.4146 Cl        1 <0>         0.0000
     11 H1          1.9001   -1.0122   -1.1994 H         1 <0>         0.0000
     12 H2          0.0086   -0.0037   -0.0172 H         1 <0>         0.0000
@<TRIPOS>BOND
     1    1    2 ar
     2    1    3 ar
     3    2    4 ar
     4    3    5 ar
     5    3    7 1
     6    4    6 ar
     7    4    8 1
     8    5    6 ar
     9    5    9 1
    10    6   10 1
    11    1   11 1
    12    2   12 1
@<TRIPOS>MOLECULE
1,2,3,5-tetrachlorobenzene
   12    12     0     0     0
SMALL
NO_CHARGES

@<TRIPOS>ATOM
      1 C1          1.8851   -1.0363   -0.1124 C.ar      1 <0>         0.0000
      2 C2          0.7638   -0.4841    1.9551 C.ar      1 <0>         0.0000
      3 C3          0.8066   -0.4630    0.5610 C.ar      1 <0>         0.0000
      4 C4          2.9210   -1.6309    0.6081 C.ar      1 <0>         0.0000
      5 C5          1.7997   -1.0786    2.6757 C.ar      1 <0>         0.0000
      6 C6          2.8783   -1.6520    2.0022 C.ar      1 <0>         0.0000
      7 Cl1        -0.4712    0.2710   -0.3283 Cl        1 <0>         0.0000
      8 Cl2         4.2254   -2.3206   -0.2963 Cl        1 <0>         0.0000
      9 Cl3         1.6768   -1.0665    4.4018 Cl        1 <0>         0.0000
     10 Cl4         4.1688   -2.3927    2.8998 Cl        1 <0>         0.0000
     11 H1          1.9152   -1.0182   -1.2001 H         1 <0>         0.0000
     12 H2         -0.0790   -0.0359    2.4772 H         1 <0>         0.0000
@<TRIPOS>BOND
     1    1    3 ar
     2    1    4 ar
     3    2    3 ar
     4    2    5 ar
     5    3    7 1
     6    4    6 ar
     7    4    8 1
     8    5    6 ar
     9    5    9 1
    10    6   10 1
    11    1   11 1
    12    2   12 1
@<TRIPOS>MOLECULE
1,2,4,5-tetrachlorobenzene
   12    12     0     0     0
SMALL
NO_CHARGES

@<TRIPOS>ATOM
      1 C1          1.8851   -1.0363   -0.1124 C.ar      1 <0>         0.0000
      2 C2          1.7997   -1.0786    2.6757 C.ar      1 <0>         0.0000
      3 C3          0.8066   -0.4630    0.5610 C.ar      1 <0>         0.0000
      4 C4          2.9210   -1.6309    0.6081 C.ar      1 <0>         0.0000
      5 C5          0.7638   -0.4841    1.9551 C.ar      1 <0>         0.0000
      6 C6          2.8783   -1.6520    2.0022 C.ar      1 <0>         0.0000
      7 Cl1        -0.4461    0.2591   -0.3868 Cl        1 <0>         0.0000
      8 Cl2         4.2305   -2.3240   -0.2829 Cl        1 <0>         0.0000
      9 Cl3        -0.5450    0.2093    2.8468 Cl        1 <0>         0.0000
     10 Cl4         4.1307   -2.3742    2.9502 Cl        1 <0>         0.0000
     11 H1          1.9185   -1.0190   -1.2000 H         1 <0>         0.0000
     12 H2          1.7665   -1.0950    3.7633 H         1 <0>         0.0000
@<TRIPOS>BOND
     1    1    3 ar
     2    1    4 ar
     3    2    5 ar
     4    2    6 ar
     5    3    5 ar
     6    3    7 1
     7    4    6 ar
     8    4    8 1
     9    5    9 1
    10    6   10 1
    11    1   11 1
    12    2   12 1
@<TRIPOS>MOLECULE
2-chlorotoluene
   15    15     0     0     0
SMALL
NO_CHARGES

@<TRIPOS>ATOM
      1 C1          1.8851   -1.0363   -0.1124 C.ar      1 <0>         0.0000
      2 C2          0.8066   -0.4630    0.5610 C.ar      1 <0>         0.0000
      3 C3          2.9210   -1.6309    0.6081 C.ar      1 <0>         0.0000
      4 C4          0.7638   -0.4841    1.9551 C.ar      1 <0>         0.0000
      5 C5          2.8783   -1.6520    2.0022 C.ar      1 <0>         0.0000
      6 C6          1.7997   -1.0786    2.6757 C.ar      1 <0>         0.0000
      7 C7          4.0088   -2.2968    2.7371 C.3       1 <0>         0.0000
      8 Cl1         1.7121   -1.0858    4.3995 Cl        1 <0>         0.0000
      9 H1          1.9178   -1.0205   -1.1981 H         1 <0>         0.0000
     10 H2         -0.0004   -0.0013   -0.0004 H         1 <0>         0.0000
     11 H3          3.7566   -2.0751    0.0735 H         1 <0>         0.0000
     12 H4         -0.0843   -0.0341    2.4647 H         1 <0>         0.0000
     13 H5          4.7903   -1.5594    2.9521 H         1 <0>         0.0000
     14 H6          3.6675   -2.7322    3.6839 H         1 <0>         0.0000
     15 H7          4.4480   -3.1121    2.1497 H         1 <0>         0.0000
@<TRIPOS>BOND
     1    1    2 ar
     2    1    3 ar
     3    2    4 ar
     4    3    5 ar
     5    4    6 ar
     6    5    6 ar
     7    5    7 1
     8    6    8 1
     9    1    9 1
    10    2   10 1
    11    3   11 1
    12    4   12 1
    13    7   13 1
    14    7   14 1
    15    7   15 1
@<TRIPOS>MOLECULE
bromobenzene
   12    12     0     0     0
SMALL
NO_CHARGES

@<TRIPOS>ATOM
      1 C1          1.8851   -1.0363   -0.1124 C.ar      1 <0>         0.0000
      2 C2          0.8066   -0.4630    0.5610 C.ar      1 <0>         0.0000
      3 C3          2.9210   -1.6309    0.6081 C.ar      1 <0>         0.0000
      4 C4          0.7638   -0.4841    1.9551 C.ar      1 <0>         0.0000
      5 C5          2.8783   -1.6520    2.0022 C.ar      1 <0>         0.0000
      6 C6          1.7997   -1.0786    2.6757 C.ar      1 <0>         0.0000
      7 Br1         1.7418   -1.1077    4.5643 Br        1 <0>         0.0000
      8 H1          1.9183   -1.0201   -1.1979 H         1 <0>         0.0000
      9 H2          0.0001    0.0000   -0.0000 H         1 <0>         0.0000
     10 H3          3.7609   -2.0771    0.0838 H         1 <0>         0.0000
     11 H4         -0.0837   -0.0329    2.4644 H         1 <0>         0.0000
     12 H5          3.6935   -2.1192    2.5486 H         1 <0>         0.0000
@<TRIPOS>BOND
     1    1    2 ar
     2    1    3 ar
     3    2    4 ar
     4    3    5 ar
     5    4    6 ar
     6    5    6 ar
     7    6    7 1
     8    1    8 1
     9    2    9 1
    10    3   10 1
    11    4   11 1
    12    5   12 1
@<TRIPOS>MOLECULE
4-bromotoluene
   15    15     0     0     0
SMALL
NO_CHARGES

@<TRIPOS>ATOM
      1 C1          1.8851   -1.0363   -0.1124 C.ar      1 <0>         0.0000
      2 C2          2.8783   -1.6520    2.0022 C.ar      1 <0>         0.0000
      3 C3          0.8066   -0.4630    0.5610 C.ar      1 <0>         0.0000
      4 C4          1.7997   -1.0786    2.6757 C.ar      1 <0>         0.0000
      5 C5          2.9210   -1.6309    0.6081 C.ar      1 <0>         0.0000
      6 C6          0.7638   -0.4841    1.9551 C.ar      1 <0>         0.0000
      7 C7          4.0742   -2.2439   -0.1120 C.3       1 <0>         0.0000
      8 Br1        -0.6981    0.2924    2.8667 Br        1 <0>         0.0000
      9 H1          1.9101   -1.0151   -1.1988 H         1 <0>         0.0000
     10 H2          3.6804   -2.1138    2.5719 H         1 <0>         0.0000
     11 H3          0.0071   -0.0047   -0.0156 H         1 <0>         0.0000
     12 H4          1.7817   -1.1032    3.7620 H         1 <0>         0.0000
     13 H5          4.8660   -1.5009   -0.2675 H         1 <0>         0.0000
     14 H6          4.4939   -3.0867    0.4524 H         1 <0>         0.0000
     15 H7          3.7692   -2.6375   -1.0904 H         1 <0>         0.0000
@<TRIPOS>BOND
     1    1    3 ar
     2    1    5 ar
     3    2    4 ar
     4    2    5 ar
     5    3    6 ar
     6    4    6 ar
     7    5    7 1
     8    6    8 1
     9    1    9 1
    10    2   10 1
    11    3   11 1
    12    4   12 1
    13    7   13 1
    14    7   14 1
    15    7   15 1
@<TRIPOS>MOLECULE
iodobenzene
   12    12     0     0     0
SMALL
NO_CHARGES

@<TRIPOS>ATOM
      1 C1          1.8851   -1.0363   -0.1124 C.ar      1 <0>         0.0000
      2 C2          0.8066   -0.4630    0.5610 C.ar      1 <0>         0.0000
      3 C3          2.9210   -1.6309    0.6081 C.ar      1 <0>         0.0000
      4 C4          0.7638   -0.4841    1.9551 C.ar      1 <0>         0.0000
      5 C5          2.8783   -1.6520    2.0022 C.ar      1 <0>         0.0000
      6 C6          1.7997   -1.0786    2.6757 C.ar      1 <0>         0.0000
      7 I1          1.7360   -1.1105    4.7518 I         1 <0>         0.0000
      8 H1          1.9183   -1.0200   -1.1979 H         1 <0>         0.0000
      9 H2          0.0001   -0.0000   -0.0002 H         1 <0>         0.0000
     10 H3          3.7608   -2.0771    0.0836 H         1 <0>         0.0000
     11 H4         -0.0855   -0.0318    2.4604 H         1 <0>         0.0000
     12 H5          3.6956   -2.1202    2.5446 H         1 <0>         0.0000
@<TRIPOS>BOND
     1    1    2 ar
     2    1    3 ar
     3    2    4 ar
     4    3    5 ar
     5    4    6 ar
     6    5    6 ar
     7    6    7 1
     8    1    8 1
     9    2    9 1
    10    3   10 1
    11    4   11 1
    12    5   12 1
@<TRIPOS>MOLECULE
anisole
   16    16     0     0     0
SMALL
NO_CHARGES

@<TRIPOS>ATOM
      1 C1          1.8851   -1.0363   -0.1124 C.ar      1 <0>         0.0000
      2 C2          0.8066   -0.4630    0.5610 C.ar      1 <0>         0.0000
      3 C3          2.9210   -1.6309    0.6081 C.ar      1 <0>         0.0000
      4 C4          0.7638   -0.4841    1.9551 C.ar      1 <0>         0.0000
      5 C5          2.8783   -1.6520    2.0022 C.ar      1 <0>         0.0000
      6 C6          1.7997   -1.0786    2.6757 C.ar      1 <0>         0.0000
      7 C7          0.6285   -0.4925    4.6608 C.3       1 <0>         0.0000
      8 O1          1.7593   -1.0981    4.0359 O.3       1 <0>         0.0000
      9 H1          1.9184   -1.0205   -1.1979 H         1 <0>         0.0000
     10 H2         -0.0001    0.0002    0.0001 H         1 <0>         0.0000
     11 H3          3.7605   -2.0773    0.0830 H         1 <0>         0.0000
     12 H4         -0.0785   -0.0345    2.4737 H         1 <0>         0.0000
     13 H5          3.6889   -2.1149    2.5584 H         1 <0>         0.0000
     14 H6          0.7221   -0.5775    5.7462 H         1 <0>         0.0000
     15 H7         -0.2848   -0.9888    4.3231 H         1 <0>         0.0000
     16 H8          0.5915    0.5633    4.3821 H         1 <0>         0.0000
@<TRIPOS>BOND
     1    1    2 ar
     2    1    3 ar
     3    2    4 ar
     4    3    5 ar
     5    4    6 ar
     6    5    6 ar
     7    6    8 1
     8    7    8 1
     9    1    9 1
    10    2   10 1
    11    3   11 1
    12    4   12 1
    13    5   13 1
    14    7   14 1
    15    7   15 1
    16    7   16 1
@<TRIPOS>MOLECULE
ethylphenylether
   19    19     0     0     0
SMALL
NO_CHARGES

@<TRIPOS>ATOM
      1 C1          1.8851   -1.0363   -0.1124 C.ar      1 <0>         0.0000
      2 C2          0.8066   -0.4630    0.5610 C.ar      1 <0>         0.0000
      3 C3          2.9210   -1.6309    0.6081 C.ar      1 <0>         0.0000
      4 C4          0.7638   -0.4841    1.9551 C.ar      1 <0>         0.0000
      5 C5          2.8783   -1.6520    2.0022 C.ar      1 <0>         0.0000
      6 C6          1.7997   -1.0786    2.6757 C.ar      1 <0>         0.0000
      7 C7          1.7127    0.2141    6.0386 C.3       1 <0>         0.0000
      8 C8          1.0846   -0.0191    4.6811 C.3       1 <0>         0.0000
      9 O1          1.7593   -1.0981    4.0359 O.3       1 <0>         0.0000
     10 H1          1.9184   -1.0205   -1.1979 H         1 <0>         0.0000
     11 H2         -0.0001    0.0002    0.0001 H         1 <0>         0.0000
     12 H3          3.7605   -2.0773    0.0830 H         1 <0>         0.0000
     13 H4         -0.0785   -0.0345    2.4737 H         1 <0>         0.0000
     14 H5          3.6889   -2.1149    2.5584 H         1 <0>         0.0000
     15 H6          1.6263   -0.6769    6.6667 H         1 <0>         0.0000
     16 H7          2.7717    0.4722    5.9347 H         1 <0>         0.0000
     17 H8          1.2290    1.0539    6.5484 H         1 <0>         0.0000
     18 H9          1.1743    0.8757    4.0579 H         1 <0>         0.0000
     19 H10         0.0267   -0.2776    4.7867 H         1 <0>         0.0000
@<TRIPOS>BOND
     1    1    2 ar
     2    1    3 ar
     3    2    4 ar
     4    3    5 ar
     5    4    6 ar
     6    5    6 ar
     7    6    9 1
     8    7    8 1
     9    8    9 1
    10    1   10 1
    11    2   11 1
    12    3   12 1
    13    4   13 1
    14    5   14 1
    15    7   15 1
    16    7   16 1
    17    7   17 1
    18    8   18 1
    19    8   19 1
@<TRIPOS>MOLECULE
benzaldehyde
   14    14     0     0     0
SMALL
NO_CHARGES

@<TRIPOS>ATOM
      1 C1          1.8851   -1.0363   -0.1124 C.ar      1 <0>         0.0000
      2 C2          0.8066   -0.4630    0.5610 C.ar      1 <0>         0.0000
      3 C3          2.9210   -1.6309    0.6081 C.ar      1 <0>         0.0000
      4 C4          0.7638   -0.4841    1.9551 C.ar      1 <0>         0.0000
      5 C5          2.8783   -1.6520    2.0022 C.ar      1 <0>         0.0000
      6 C6          1.7997   -1.0786    2.6757 C.ar      1 <0>         0.0000
      7 C7          1.7551   -1.1006    4.1291 C.2       1 <0>         0.0000
      8 O1          2.6391   -1.6110    4.8228 O.2       1 <0>         0.0000
      9 H1          1.9184   -1.0198   -1.1978 H         1 <0>         0.0000
     10 H2          0.0002    0.0001   -0.0002 H         1 <0>         0.0000
     11 H3          3.7607   -2.0775    0.0838 H         1 <0>         0.0000
     12 H4         -0.0814   -0.0344    2.4697 H         1 <0>         0.0000
     13 H5          3.6911   -2.1179    2.5534 H         1 <0>         0.0000
     14 H6          0.8755   -0.6311    4.6210 H         1 <0>         0.0000
@<TRIPOS>BOND
     1    1    2 ar
     2    1    3 ar
     3    2    4 ar
     4    3    5 ar
     5    4    6 ar
     6    5    6 ar
     7    6    7 1
     8    7    8 2
     9    1    9 1
    10    2   10 1
    11    3   11 1
    12    4   12 1
    13    5   13 1
    14    7   14 1
@<TRIPOS>MOLECULE
4-methylbenzaldehyde
   17    17     0     0     0
SMALL
NO_CHARGES

@<TRIPOS>ATOM
      1 C1          1.8851   -1.0363   -0.1124 C.ar      1 <0>         0.0000
      2 C2          2.8783   -1.6520    2.0022 C.ar      1 <0>         0.0000
      3 C3          0.8066   -0.4630    0.5610 C.ar      1 <0>         0.0000
      4 C4          1.7997   -1.0786    2.6757 C.ar      1 <0>         0.0000
      5 C5          2.9210   -1.6309    0.6081 C.ar      1 <0>         0.0000
      6 C6          0.7638   -0.4841    1.9551 C.ar      1 <0>         0.0000
      7 C7          4.0464   -2.2285   -0.0930 C.2       1 <0>         0.0000
      8 C8         -0.3892    0.1300    2.6748 C.3       1 <0>         0.0000
      9 O1          4.9922   -2.7684    0.4875 O.2       1 <0>         0.0000
     10 H1          1.9089   -1.0145   -1.1989 H         1 <0>         0.0000
     11 H2          3.6797   -2.1125    2.5740 H         1 <0>         0.0000
     12 H3          0.0041   -0.0017   -0.0084 H         1 <0>         0.0000
     13 H4          1.7748   -1.0992    3.7621 H         1 <0>         0.0000
     14 H5          4.0370   -2.1872   -1.2040 H         1 <0>         0.0000
     15 H6         -1.1815   -0.6123    2.8301 H         1 <0>         0.0000
     16 H7         -0.0843    0.5235    3.6531 H         1 <0>         0.0000
     17 H8         -0.8079    0.9731    2.1098 H         1 <0>         0.0000
@<TRIPOS>BOND
     1    1    3 ar
     2    1    5 ar
     3    2    4 ar
     4    2    5 ar
     5    3    6 ar
     6    4    6 ar
     7    5    7 1
     8    6    8 1
     9    7    9 2
    10    1   10 1
    11    2   11 1
    12    3   12 1
    13    4   13 1
    14    7   14 1
    15    8   15 1
    16    8   16 1
    17    8   17 1
@<TRIPOS>MOLECULE
acetophenone
   17    17     0     0     0
SMALL
NO_CHARGES

@<TRIPOS>ATOM
      1 C1          1.8851   -1.0363   -0.1124 C.ar      1 <0>         0.0000
      2 C2          0.8066   -0.4630    0.5610 C.ar      1 <0>         0.0000
      3 C3          2.9210   -1.6309    0.6081 C.ar      1 <0>         0.0000
      4 C4          0.7638   -0.4841    1.9551 C.ar      1 <0>         0.0000
      5 C5          2.8783   -1.6520    2.0022 C.ar      1 <0>         0.0000
      6 C6          1.7997   -1.0786    2.6757 C.ar      1 <0>         0.0000
      7 C7          1.7551   -1.1006    4.1291 C.2       1 <0>         0.0000
      8 C8          1.0462    0.0290    4.8183 C.3       1 <0>         0.0000
      9 O1          2.2594   -1.9739    4.8383 O.2       1 <0>         0.0000
     10 H1          1.9184   -1.0198   -1.1978 H         1 <0>         0.0000
     11 H2          0.0002    0.0001   -0.0002 H         1 <0>         0.0000
     12 H3          3.7607   -2.0775    0.0838 H         1 <0>         0.0000
     13 H4         -0.0814   -0.0344    2.4697 H         1 <0>         0.0000
     14 H5          3.6911   -2.1179    2.5534 H         1 <0>         0.0000
     15 H6         -0.0263   -0.1547    4.9891 H         1 <0>         0.0000
     16 H7          1.1360    0.9872    4.2835 H         1 <0>         0.0000
     17 H8          1.4406    0.2390    5.8285 H         1 <0>         0.0000
@<TRIPOS>BOND
     1    1    2 ar
     2    1    3 ar
     3    2    4 ar
     4    3    5 ar
     5    4    6 ar
     6    5    6 ar
     7    6    7 1
     8    7    8 1
     9    7    9 2
    10    1   10 1
    11    2   11 1
    12    3   12 1
    13    4   13 1
    14    5   14 1
    15    8   15 1
    16    8   16 1
    17    8   17 1
@<TRIPOS>MOLECULE
4-methylacetophenone
   20    20     0     0     0
SMALL
NO_CHARGES

@<TRIPOS>ATOM
      1 C1          1.8851   -1.0363   -0.1124 C.ar      1 <0>         0.0000
      2 C2          2.8783   -1.6520    2.0022 C.ar      1 <0>         0.0000
      3 C3          0.8066   -0.4630    0.5610 C.ar      1 <0>         0.0000
      4 C4          1.7997   -1.0786    2.6757 C.ar      1 <0>         0.0000
      5 C5          2.9210   -1.6309    0.6081 C.ar      1 <0>         0.0000
      6 C6          0.7638   -0.4841    1.9551 C.ar      1 <0>         0.0000
      7 C7          4.0464   -2.2285   -0.0930 C.2       1 <0>         0.0000
      8 C8         -0.3892    0.1300    2.6748 C.3       1 <0>         0.0000
      9 C9          3.7885   -2.8025   -1.4559 C.3       1 <0>         0.0000
     10 O1          5.1947   -2.3037    0.3489 O.2       1 <0>         0.0000
     11 H1          1.9089   -1.0145   -1.1989 H         1 <0>         0.0000
     12 H2          3.6797   -2.1125    2.5740 H         1 <0>         0.0000
     13 H3          0.0041   -0.0017   -0.0084 H         1 <0>         0.0000
     14 H4          1.7748   -1.0992    3.7621 H         1 <0>         0.0000
     15 H5         -1.1815   -0.6123    2.8301 H         1 <0>         0.0000
     16 H6         -0.0843    0.5235    3.6531 H         1 <0>         0.0000
     17 H7         -0.8079    0.9731    2.1098 H         1 <0>         0.0000
     18 H8          3.9260   -2.0819   -2.2775 H         1 <0>         0.0000
     19 H9          2.7810   -3.2342   -1.5605 H         1 <0>         0.0000
     20 H10         4.4716   -3.6306   -1.7161 H         1 <0>         0.0000
@<TRIPOS>BOND
     1    1    3 ar
     2    1    5 ar
     3    2    4 ar
     4    2    5 ar
     5    3    6 ar
     6    4    6 ar
     7    5    7 1
     8    6    8 1
     9    7    9 1
    10    7   10 2
    11    1   11 1
    12    2   12 1
    13    3   13 1
    14    4   14 1
    15    8   15 1
    16    8   16 1
    17    8   17 1
    18    9   18 1
    19    9   19 1
    20    9   20 1
@<TRIPOS>MOLECULE
methylbenzoate
   18    18     0     0     0
SMALL
NO_CHARGES

@<TRIPOS>ATOM
      1 C1          1.8851   -1.0363   -0.1124 C.ar      1 <0>         0.0000
      2 C2          0.8066   -0.4630    0.5610 C.ar      1 <0>         0.0000
      3 C3          2.9210   -1.6309    0.6081 C.ar      1 <0>         0.0000
      4 C4          0.7638   -0.4841    1.9551 C.ar      1 <0>         0.0000
      5 C5          2.8783   -1.6520    2.0022 C.ar      1 <0>         0.0000
      6 C6          1.7997   -1.0786    2.6757 C.ar      1 <0>         0.0000
      7 C7          1.7551   -1.1006    4.1291 C.2       1 <0>         0.0000
      8 C8          2.9238   -1.8109    6.0841 C.3       1 <0>         0.0000
      9 O1          0.8400   -0.6175    4.8090 O.2       1 <0>         0.0000
     10 O2          2.8526   -1.7244    4.6569 O.3       1 <0>         0.0000
     11 H1          1.9184   -1.0198   -1.1978 H         1 <0>         0.0000
     12 H2          0.0002    0.0001   -0.0002 H         1 <0>         0.0000
     13 H3          3.7607   -2.0775    0.0838 H         1 <0>         0.0000
     14 H4         -0.0814   -0.0344    2.4697 H         1 <0>         0.0000
     15 H5          3.6911   -2.1179    2.5534 H         1 <0>         0.0000
     16 H6          3.8421   -2.3278    6.3732 H         1 <0>         0.0000
     17 H7          2.0533   -2.3538    6.4610 H         1 <0>         0.0000
     18 H8          2.9298   -0.8013    6.5016 H         1 <0>         0.0000
@<TRIPOS>BOND
     1    1    2 ar
     2    1    3 ar
     3    2    4 ar
     4    3    5 ar
     5    4    6 ar
     6    5    6 ar
     7    6    7 1
     8    7    9 2
     9    7   10 1
    10    8   10 1
    11    1   11 1
    12    2   12 1
    13    3   13 1
    14    4   14 1
    15    5   15 1
    16    8   16 1
    17    8   17 1
    18    8   18 1
@<TRIPOS>MOLECULE
ethylbenzoate
   21    21     0     0     0
SMALL
NO_CHARGES

@<TRIPOS>ATOM
      1 C1          1.8851   -1.0363   -0.1124 C.ar      1 <0>         0.0000
      2 C2          0.8066   -0.4630    0.5610 C.ar      1 <0>         0.0000
      3 C3          2.9210   -1.6309    0.6081 C.ar      1 <0>         0.0000
      4 C4          0.7638   -0.4841    1.9551 C.ar      1 <0>         0.0000
      5 C5          2.8783   -1.6520    2.0022 C.ar      1 <0>         0.0000
      6 C6          1.7997   -1.0786    2.6757 C.ar      1 <0>         0.0000
      7 C7          1.7551   -1.1006    4.1291 C.2       1 <0>         0.0000
      8 C8          4.1992   -2.5284    6.4716 C.3       1 <0>         0.0000
      9 C9          2.9238   -1.8109    6.0841 C.3       1 <0>         0.0000
     10 O1          0.8400   -0.6175    4.8090 O.2       1 <0>         0.0000
     11 O2          2.8526   -1.7244    4.6569 O.3       1 <0>         0.0000
     12 H1          1.9184   -1.0198   -1.1978 H         1 <0>         0.0000
     13 H2          0.0002    0.0001   -0.0002 H         1 <0>         0.0000
     14 H3          3.7607   -2.0775    0.0838 H         1 <0>         0.0000
     15 H4         -0.0814   -0.0344    2.4697 H         1 <0>         0.0000
     16 H5          3.6911   -2.1179    2.5534 H         1 <0>         0.0000
     17 H6          4.2180   -3.5410    6.0593 H         1 <0>         0.0000
     18 H7          5.0754   -1.9820    6.1074 H         1 <0>         0.0000
     19 H8          4.2921   -2.5888    7.5611 H         1 <0>         0.0000
     20 H9          2.9113   -0.7989    6.4996 H         1 <0>         0.0000
     21 H10         2.0493   -2.3586    6.4481 H         1 <0>         0.0000
@<TRIPOS>BOND
     1    1    2 ar
     2    1    3 ar
     3    2    4 ar
     4    3    5 ar
     5    4    6 ar
     6    5    6 ar
     7    6    7 1
     8    7   10 2
     9    7   11 1
    10    8    9 1
    11    9   11 1
    12    1   12 1
    13    2   13 1
    14    3   14 1
    15    4   15 1
    16    5   16 1
    17    8   17 1
    18    8   18 1
    19    8   19 1
    20    9   20 1
    21    9   21 1
@<TRIPOS>MOLECULE
benzonitrile
   13    13     0     0     0
SMALL
NO_CHARGES

@<TRIPOS>ATOM
      1 C1          1.7557   -1.1005    4.1039 C.1       1 <0>         0.0000
      2 C2          1.8851   -1.0363   -0.1124 C.ar      1 <0>         0.0000
      3 C3          0.8066   -0.4630    0.5610 C.ar      1 <0>         0.0000
      4 C4          2.9210   -1.6309    0.6081 C.ar      1 <0>         0.0000
      5 C5          0.7638   -0.4841    1.9551 C.ar      1 <0>         0.0000
      6 C6          2.8783   -1.6520    2.0022 C.ar      1 <0>         0.0000
      7 C7          1.7997   -1.0786    2.6757 C.ar      1 <0>         0.0000
      8 N1          1.7198   -1.1184    5.2638 N.1       1 <0>         0.0000
      9 H1          1.9173   -1.0213   -1.1980 H         1 <0>         0.0000
     10 H2         -0.0006   -0.0011    0.0001 H         1 <0>         0.0000
     11 H3          3.7607   -2.0782    0.0844 H         1 <0>         0.0000
     12 H4         -0.0838   -0.0331    2.4655 H         1 <0>         0.0000
     13 H5          3.6929   -2.1195    2.5500 H         1 <0>         0.0000
@<TRIPOS>BOND
     1    1    7 1
     2    1    8 3
     3    2    3 ar
     4    2    4 ar
     5    3    5 ar
     6    4    6 ar
     7    5    7 ar
     8    6    7 ar
     9    2    9 1
    10    3   10 1
    11    4   11 1
    12    5   12 1
    13    6   13 1
@<TRIPOS>MOLECULE
2,6-dimethylaniline
   20    20     0     0     0
SMALL
NO_CHARGES

@<TRIPOS>ATOM
      1 C1          1.8851   -1.0363   -0.1124 C.ar      1 <0>         0.0000
      2 C2          0.8066   -0.4630    0.5610 C.ar      1 <0>         0.0000
      3 C3          2.8783   -1.6520    2.0022 C.ar      1 <0>         0.0000
      4 C4          2.9210   -1.6309    0.6081 C.ar      1 <0>         0.0000
      5 C5          1.7997   -1.0786    2.6757 C.ar      1 <0>         0.0000
      6 C6          0.7638   -0.4841    1.9551 C.ar      1 <0>         0.0000
      7 C7          4.0740   -2.2437   -0.1123 C.3       1 <0>         0.0000
      8 C8          1.7795   -1.1154    4.1693 C.3       1 <0>         0.0000
      9 N1         -0.3360    0.1012    2.6200 N.pl3     1 <0>         0.0000
     10 H1          1.9100   -1.0152   -1.1987 H         1 <0>         0.0000
     11 H2          0.0051   -0.0026   -0.0111 H         1 <0>         0.0000
     12 H3          3.6865   -2.1158    2.5630 H         1 <0>         0.0000
     13 H4          4.8658   -1.5007   -0.2680 H         1 <0>         0.0000
     14 H5          4.4939   -3.0866    0.4518 H         1 <0>         0.0000
     15 H6          3.7688   -2.6372   -1.0908 H         1 <0>         0.0000
     16 H7          2.2708   -0.2247    4.5772 H         1 <0>         0.0000
     17 H8          0.7518   -1.1539    4.5502 H         1 <0>         0.0000
     18 H9          2.2953   -2.0053    4.5501 H         1 <0>         0.0000
     19 H10        -1.0406    0.5615    2.0817 H         1 <0>         0.0000
     20 H11        -0.3422    0.1270    3.6187 H         1 <0>         0.0000
@<TRIPOS>BOND
     1    1    2 ar
     2    1    4 ar
     3    2    6 ar
     4    3    4 ar
     5    3    5 ar
     6    4    7 1
     7    5    6 ar
     8    5    8 1
     9    6    9 1
    10    1   10 1
    11    2   11 1
    12    3   12 1
    13    7   13 1
    14    7   14 1
    15    7   15 1
    16    8   16 1
    17    8   17 1
    18    8   18 1
    19    9   19 1
    20    9   20 1
@<TRIPOS>MOLECULE
2-chloroaniline
   14    14     0     0     0
SMALL
NO_CHARGES

@<TRIPOS>ATOM
      1 C1          1.8851   -1.0363   -0.1124 C.ar      1 <0>         0.0000
      2 C2          0.8066   -0.4630    0.5610 C.ar      1 <0>         0.0000
      3 C3          2.9210   -1.6309    0.6081 C.ar      1 <0>         0.0000
      4 C4          0.7638   -0.4841    1.9551 C.ar      1 <0>         0.0000
      5 C5          2.8783   -1.6520    2.0022 C.ar      1 <0>         0.0000
      6 C6          1.7997   -1.0786    2.6757 C.ar      1 <0>         0.0000
      7 N1          3.9426   -2.2616    2.7041 N.pl3     1 <0>         0.0000
      8 Cl1         1.7069   -1.0828    4.4006 Cl        1 <0>         0.0000
      9 H1          1.9183   -1.0197   -1.1979 H         1 <0>         0.0000
     10 H2          0.0001   -0.0002   -0.0002 H         1 <0>         0.0000
     11 H3          3.7562   -2.0743    0.0718 H         1 <0>         0.0000
     12 H4         -0.0839   -0.0329    2.4644 H         1 <0>         0.0000
     13 H5          4.6744   -2.7031    2.1876 H         1 <0>         0.0000
     14 H6          3.8953   -2.3218    3.6998 H         1 <0>         0.0000
@<TRIPOS>BOND
     1    1    2 ar
     2    1    3 ar
     3    2    4 ar
     4    3    5 ar
     5    4    6 ar
     6    5    6 ar
     7    5    7 1
     8    6    8 1
     9    1    9 1
    10    2   10 1
    11    3   11 1
    12    4   12 1
    13    7   13 1
    14    7   14 1
@<TRIPOS>MOLECULE
3-chloroaniline
   14    14     0     0     0
SMALL
NO_CHARGES

@<TRIPOS>ATOM
      1 C1          1.8851   -1.0363   -0.1124 C.ar      1 <0>         0.0000
      2 C2          0.8066   -0.4630    0.5610 C.ar      1 <0>         0.0000
      3 C3          2.9210   -1.6309    0.6081 C.ar      1 <0>         0.0000
      4 C4          1.7997   -1.0786    2.6757 C.ar      1 <0>         0.0000
      5 C5          0.7638   -0.4841    1.9551 C.ar      1 <0>         0.0000
      6 C6          2.8783   -1.6520    2.0022 C.ar      1 <0>         0.0000
      7 N1         -0.3269    0.0961    2.6357 N.pl3     1 <0>         0.0000
      8 Cl1         4.1572   -2.3848    2.8904 Cl        1 <0>         0.0000
      9 H1          1.9181   -1.0190   -1.1979 H         1 <0>         0.0000
     10 H2          0.0045   -0.0026   -0.0099 H         1 <0>         0.0000
     11 H3          3.7553   -2.0737    0.0701 H         1 <0>         0.0000
     12 H4          1.7624   -1.0925    3.7630 H         1 <0>         0.0000
     13 H5         -1.0390    0.5605    2.1094 H         1 <0>         0.0000
     14 H6         -0.3228    0.1162    3.6354 H         1 <0>         0.0000
@<TRIPOS>BOND
     1    1    2 ar
     2    1    3 ar
     3    2    5 ar
     4    3    6 ar
     5    4    5 ar
     6    4    6 ar
     7    5    7 1
     8    6    8 1
     9    1    9 1
    10    2   10 1
    11    3   11 1
    12    4   12 1
    13    7   13 1
    14    7   14 1
@<TRIPOS>MOLECULE
4-chloroaniline
   14    14     0     0     0
SMALL
NO_CHARGES

@<TRIPOS>ATOM
      1 C1          1.8851   -1.0363   -0.1124 C.ar      1 <0>         0.0000
      2 C2          2.8783   -1.6520    2.0022 C.ar      1 <0>         0.0000
      3 C3          0.8066   -0.4630    0.5610 C.ar      1 <0>         0.0000
      4 C4          1.7997   -1.0786    2.6757 C.ar      1 <0>         0.0000
      5 C5          2.9210   -1.6309    0.6081 C.ar      1 <0>         0.0000
      6 C6          0.7638   -0.4841    1.9551 C.ar      1 <0>         0.0000
      7 N1          4.0101   -2.2121   -0.0736 N.pl3     1 <0>         0.0000
      8 Cl1        -0.5670    0.2233    2.7855 Cl        1 <0>         0.0000
      9 H1          1.9083   -1.0155   -1.1989 H         1 <0>         0.0000
     10 H2          3.6795   -2.1140    2.5734 H         1 <0>         0.0000
     11 H3          0.0058   -0.0049   -0.0139 H         1 <0>         0.0000
     12 H4          1.7794   -1.1044    3.7623 H         1 <0>         0.0000
     13 H5          4.0050   -2.2332   -1.0734 H         1 <0>         0.0000
     14 H6          4.7229   -2.6766    0.4521 H         1 <0>         0.0000
@<TRIPOS>BOND
     1    1    3 ar
     2    1    5 ar
     3    2    4 ar
     4    2    5 ar
     5    3    6 ar
     6    4    6 ar
     7    5    7 1
     8    6    8 1
     9    1    9 1
    10    2   10 1
    11    3   11 1
    12    4   12 1
    13    7   13 1
    14    7   14 1
@<TRIPOS>MOLECULE
2-methoxyaniline
   18    18     0     0     0
SMALL
NO_CHARGES

@<TRIPOS>ATOM
      1 C1          1.8851   -1.0363   -0.1124 C.ar      1 <0>         0.0000
      2 C2          0.8066   -0.4630    0.5610 C.ar      1 <0>         0.0000
      3 C3          2.9210   -1.6309    0.6081 C.ar      1 <0>         0.0000
      4 C4          0.7638   -0.4841    1.9551 C.ar      1 <0>         0.0000
      5 C5          2.8783   -1.6520    2.0022 C.ar      1 <0>         0.0000
      6 C6          1.7997   -1.0786    2.6757 C.ar      1 <0>         0.0000
      7 C7          2.3235    0.0188    4.7194 C.3       1 <0>         0.0000
      8 N1          3.9335   -2.2572    2.7187 N.pl3     1 <0>         0.0000
      9 O1          1.7391   -1.0885    4.0371 O.3       1 <0>         0.0000
     10 H1          1.9187   -1.0191   -1.1978 H         1 <0>         0.0000
     11 H2         -0.0000   -0.0005   -0.0001 H         1 <0>         0.0000
     12 H3          3.7564   -2.0750    0.0725 H         1 <0>         0.0000
     13 H4         -0.0796   -0.0362    2.4738 H         1 <0>         0.0000
     14 H5          2.2065   -0.1137    5.7978 H         1 <0>         0.0000
     15 H6          1.8358    0.9433    4.4002 H         1 <0>         0.0000
     16 H7          3.3870    0.0667    4.4738 H         1 <0>         0.0000
     17 H8          4.6717   -2.7029    2.2137 H         1 <0>         0.0000
     18 H9          3.8762   -2.3120    3.7149 H         1 <0>         0.0000
@<TRIPOS>BOND
     1    1    2 ar
     2    1    3 ar
     3    2    4 ar
     4    3    5 ar
     5    4    6 ar
     6    5    6 ar
     7    5    8 1
     8    6    9 1
     9    7    9 1
    10    1   10 1
    11    2   11 1
    12    3   12 1
    13    4   13 1
    14    7   14 1
    15    7   15 1
    16    7   16 1
    17    8   17 1
    18    8   18 1
@<TRIPOS>MOLECULE
3-methoxyaniline
   18    18     0     0     0
SMALL
NO_CHARGES

@<TRIPOS>ATOM
      1 C1          1.8851   -1.0363   -0.1124 C.ar      1 <0>         0.0000
      2 C2          0.8066   -0.4630    0.5610 C.ar      1 <0>         0.0000
      3 C3          2.9210   -1.6309    0.6081 C.ar      1 <0>         0.0000
      4 C4          1.7997   -1.0786    2.6757 C.ar      1 <0>         0.0000
      5 C5          0.7638   -0.4841    1.9551 C.ar      1 <0>         0.0000
      6 C6          2.8783   -1.6520    2.0022 C.ar      1 <0>         0.0000
      7 C7          4.9608   -2.7994    1.9530 C.3       1 <0>         0.0000
      8 N1         -0.3262    0.0966    2.6360 N.pl3     1 <0>         0.0000
      9 O1          3.8891   -2.2323    2.7051 O.3       1 <0>         0.0000
     10 H1          1.9186   -1.0197   -1.1979 H         1 <0>         0.0000
     11 H2          0.0054   -0.0012   -0.0105 H         1 <0>         0.0000
     12 H3          3.7582   -2.0764    0.0779 H         1 <0>         0.0000
     13 H4          1.7710   -1.0974    3.7627 H         1 <0>         0.0000
     14 H5          5.6987   -3.2284    2.6353 H         1 <0>         0.0000
     15 H6          5.4250   -2.0248    1.3374 H         1 <0>         0.0000
     16 H7          4.5643   -3.5864    1.3071 H         1 <0>         0.0000
     17 H8         -1.0383    0.5616    2.1100 H         1 <0>         0.0000
     18 H9         -0.3220    0.1166    3.6358 H         1 <0>         0.0000
@<TRIPOS>BOND
     1    1    2 ar
     2    1    3 ar
     3    2    5 ar
     4    3    6 ar
     5    4    5 ar
     6    4    6 ar
     7    5    8 1
     8    6    9 1
     9    7    9 1
    10    1   10 1
    11    2   11 1
    12    3   12 1
    13    4   13 1
    14    7   14 1
    15    7   15 1
    16    7   16 1
    17    8   17 1
    18    8   18 1
@<TRIPOS>MOLECULE
4-methoxyaniline
   18    18     0     0     0
SMALL
NO_CHARGES

@<TRIPOS>ATOM
      1 C1          1.8851   -1.0363   -0.1124 C.ar      1 <0>         0.0000
      2 C2          2.8783   -1.6520    2.0022 C.ar      1 <0>         0.0000
      3 C3          0.8066   -0.4630    0.5610 C.ar      1 <0>         0.0000
      4 C4          1.7997   -1.0786    2.6757 C.ar      1 <0>         0.0000
      5 C5          2.9210   -1.6309    0.6081 C.ar      1 <0>         0.0000
      6 C6          0.7638   -0.4841    1.9551 C.ar      1 <0>         0.0000
      7 C7         -1.3130    0.6659    1.8137 C.3       1 <0>         0.0000
      8 N1          4.0115   -2.2106   -0.0728 N.pl3     1 <0>         0.0000
      9 O1         -0.2887    0.0753    2.6122 O.3       1 <0>         0.0000
     10 H1          1.9083   -1.0142   -1.1990 H         1 <0>         0.0000
     11 H2          3.6801   -2.1126    2.5736 H         1 <0>         0.0000
     12 H3          0.0026   -0.0014   -0.0058 H         1 <0>         0.0000
     13 H4          1.7720   -1.0982    3.7618 H         1 <0>         0.0000
     14 H5         -2.0916    1.0746    2.4624 H         1 <0>         0.0000
     15 H6         -1.7380   -0.0893    1.1477 H         1 <0>         0.0000
     16 H7         -0.8787    1.4718    1.2174 H         1 <0>         0.0000
     17 H8          4.0075   -2.2307   -1.0726 H         1 <0>         0.0000
     18 H9          4.7240   -2.6749    0.4533 H         1 <0>         0.0000
@<TRIPOS>BOND
     1    1    3 ar
     2    1    5 ar
     3    2    4 ar
     4    2    5 ar
     5    3    6 ar
     6    4    6 ar
     7    5    8 1
     8    6    9 1
     9    7    9 1
    10    1   10 1
    11    2   11 1
    12    3   12 1
    13    4   13 1
    14    7   14 1
    15    7   15 1
    16    7   16 1
    17    8   17 1
    18    8   18 1
@<TRIPOS>MOLECULE
2-nitroaniline
   16    16     0     0     0
SMALL
NO_CHARGES

@<TRIPOS>ATOM
      1 C1          1.8851   -1.0363   -0.1124 C.ar      1 <0>         0.0000
      2 C2          0.8066   -0.4630    0.5610 C.ar      1 <0>         0.0000
      3 C3          2.9210   -1.6309    0.6081 C.ar      1 <0>         0.0000
      4 C4          0.7638   -0.4841    1.9551 C.ar      1 <0>         0.0000
      5 C5          2.8783   -1.6520    2.0022 C.ar      1 <0>         0.0000
      6 C6          1.7997   -1.0786    2.6757 C.ar      1 <0>         0.0000
      7 N1          3.9394   -2.2617    2.7089 N.pl3     1 <0>         0.0000
      8 N2          1.7307   -1.0864    4.0972 N.pl3     1 <0>         0.0000
      9 O1          1.1715   -2.0504    4.6702 O.3       1 <0>         0.0000
     10 O2          2.2314   -0.1290    4.7322 O.2       1 <0>         0.0000
     11 H1          1.9184   -1.0196   -1.1978 H         1 <0>         0.0000
     12 H2          0.0002    0.0002   -0.0002 H         1 <0>         0.0000
     13 H3          3.7560   -2.0749    0.0722 H         1 <0>         0.0000
     14 H4         -0.0831   -0.0330    2.4661 H         1 <0>         0.0000
     15 H5          4.6724   -2.7052    2.1957 H         1 <0>         0.0000
     16 H6          3.8886   -2.3200    3.7045 H         1 <0>         0.0000
@<TRIPOS>BOND
     1    1    2 ar
     2    1    3 ar
     3    2    4 ar
     4    3    5 ar
     5    4    6 ar
     6    5    6 ar
     7    5    7 1
     8    6    8 1
     9    8    9 1
    10    8   10 2
    11    1   11 1
    12    2   12 1
    13    3   13 1
    14    4   14 1
    15    7   15 1
    16    7   16 1
@<TRIPOS>MOLECULE
3-nitroaniline
   16    16     0     0     0
SMALL
NO_CHARGES

@<TRIPOS>ATOM
      1 C1          1.8851   -1.0363   -0.1124 C.ar      1 <0>         0.0000
      2 C2          0.8066   -0.4630    0.5610 C.ar      1 <0>         0.0000
      3 C3          2.9210   -1.6309    0.6081 C.ar      1 <0>         0.0000
      4 C4          1.7997   -1.0786    2.6757 C.ar      1 <0>         0.0000
      5 C5          0.7638   -0.4841    1.9551 C.ar      1 <0>         0.0000
      6 C6          2.8783   -1.6520    2.0022 C.ar      1 <0>         0.0000
      7 N1         -0.3266    0.0962    2.6359 N.pl3     1 <0>         0.0000
      8 N2          3.9328   -2.2585    2.7350 N.pl3     1 <0>         0.0000
      9 O1          4.8928   -2.7691    2.1088 O.3       1 <0>         0.0000
     10 O2          3.8756   -2.2669    3.9883 O.2       1 <0>         0.0000
     11 H1          1.9184   -1.0198   -1.1978 H         1 <0>         0.0000
     12 H2          0.0048   -0.0022   -0.0107 H         1 <0>         0.0000
     13 H3          3.7558   -2.0748    0.0711 H         1 <0>         0.0000
     14 H4          1.7645   -1.0939    3.7632 H         1 <0>         0.0000
     15 H5         -1.0388    0.5608    2.1099 H         1 <0>         0.0000
     16 H6         -0.3223    0.1162    3.6357 H         1 <0>         0.0000
@<TRIPOS>BOND
     1    1    2 ar
     2    1    3 ar
     3    2    5 ar
     4    3    6 ar
     5    4    5 ar
     6    4    6 ar
     7    5    7 1
     8    6    8 1
     9    8    9 1
    10    8   10 2
    11    1   11 1
    12    2   12 1
    13    3   13 1
    14    4   14 1
    15    7   15 1
    16    7   16 1
@<TRIPOS>MOLECULE
4-nitroaniline
   16    16     0     0     0
SMALL
NO_CHARGES

@<TRIPOS>ATOM
      1 C1          1.8851   -1.0363   -0.1124 C.ar      1 <0>         0.0000
      2 C2          2.8783   -1.6520    2.0022 C.ar      1 <0>         0.0000
      3 C3          0.8066   -0.4630    0.5610 C.ar      1 <0>         0.0000
      4 C4          1.7997   -1.0786    2.6757 C.ar      1 <0>         0.0000
      5 C5          2.9210   -1.6309    0.6081 C.ar      1 <0>         0.0000
      6 C6          0.7638   -0.4841    1.9551 C.ar      1 <0>         0.0000
      7 N1          4.0107   -2.2118   -0.0730 N.pl3     1 <0>         0.0000
      8 N2         -0.3314    0.1036    2.6416 N.pl3     1 <0>         0.0000
      9 O1         -1.2510    0.6371    1.9753 O.3       1 <0>         0.0000
     10 O2         -0.3497    0.0732    3.8959 O.2       1 <0>         0.0000
     11 H1          1.9077   -1.0152   -1.1991 H         1 <0>         0.0000
     12 H2          3.6805   -2.1128    2.5731 H         1 <0>         0.0000
     13 H3          0.0059   -0.0025   -0.0126 H         1 <0>         0.0000
     14 H4          1.7802   -1.1005    3.7625 H         1 <0>         0.0000
     15 H5          4.0062   -2.2328   -1.0728 H         1 <0>         0.0000
     16 H6          4.7232   -2.6761    0.4531 H         1 <0>         0.0000
@<TRIPOS>BOND
     1    1    3 ar
     2    1    5 ar
     3    2    4 ar
     4    2    5 ar
     5    3    6 ar
     6    4    6 ar
     7    5    7 1
     8    6    8 1
     9    8    9 1
    10    8   10 2
    11    1   11 1
    12    2   12 1
    13    3   13 1
    14    4   14 1
    15    7   15 1
    16    7   16 1
@<TRIPOS>MOLECULE
1-napthalamine
   20    21     0     0     0
SMALL
NO_CHARGES

@<TRIPOS>ATOM
      1 C1         -0.4966   -2.0341    0.4940 C.ar      1 <0>         0.0000
      2 C2          0.3500   -1.0275    0.0392 C.ar      1 <0>         0.0000
      3 C3          3.0228   -5.3167   -0.2210 C.ar      1 <0>         0.0000
      4 C4         -0.0479   -3.3542    0.5448 C.ar      1 <0>         0.0000
      5 C5          1.6484   -1.3369   -0.3665 C.ar      1 <0>         0.0000
      6 C6          1.7243   -5.0072    0.1848 C.ar      1 <0>         0.0000
      7 C7          3.8693   -4.3100   -0.6758 C.ar      1 <0>         0.0000
      8 C8          1.2560   -3.6839    0.1403 C.ar      1 <0>         0.0000
      9 C9          2.1168   -2.6602   -0.3222 C.ar      1 <0>         0.0000
     10 C10         3.4207   -2.9899   -0.7267 C.ar      1 <0>         0.0000
     11 N1          4.3229   -2.0046   -1.1971 N.pl3     1 <0>         0.0000
     12 H1         -1.5069   -1.7923    0.8104 H         1 <0>         0.0000
     13 H2         -0.0002    0.0001    0.0000 H         1 <0>         0.0000
     14 H3          3.3728   -6.3444   -0.1827 H         1 <0>         0.0000
     15 H4         -0.7270   -4.1249    0.9033 H         1 <0>         0.0000
     16 H5          2.2782   -0.5216   -0.7147 H         1 <0>         0.0000
     17 H6          1.0805   -5.8101    0.5374 H         1 <0>         0.0000
     18 H7          4.8788   -4.5652   -0.9886 H         1 <0>         0.0000
     19 H8          5.2540   -2.2753   -1.4290 H         1 <0>         0.0000
     20 H9          4.0365   -1.0496   -1.1962 H         1 <0>         0.0000
@<TRIPOS>BOND
     1    1    2 ar
     2    1    4 ar
     3    2    5 ar
     4    3    6 ar
     5    3    7 ar
     6    4    8 ar
     7    5    9 ar
     8    6    8 ar
     9    7   10 ar
    10    8    9 ar
    11    9   10 ar
    12   10   11 1
    13    1   12 1
    14    2   13 1
    15    3   14 1
    16    4   15 1
    17    5   16 1
    18    6   17 1
    19    7   18 1
    20   11   19 1
    21   11   20 1
@<TRIPOS>MOLECULE
2-napthalamine
   20    21     0     0     0
SMALL
NO_CHARGES

@<TRIPOS>ATOM
      1 C1         -0.4966   -2.0341    0.4940 C.ar      1 <0>         0.0000
      2 C2          0.3500   -1.0275    0.0392 C.ar      1 <0>         0.0000
      3 C3         -0.0479   -3.3542    0.5448 C.ar      1 <0>         0.0000
      4 C4          1.6484   -1.3369   -0.3665 C.ar      1 <0>         0.0000
      5 C5          1.7243   -5.0072    0.1848 C.ar      1 <0>         0.0000
      6 C6          3.0228   -5.3167   -0.2210 C.ar      1 <0>         0.0000
      7 C7          3.4207   -2.9899   -0.7267 C.ar      1 <0>         0.0000
      8 C8          1.2560   -3.6839    0.1403 C.ar      1 <0>         0.0000
      9 C9          2.1168   -2.6602   -0.3222 C.ar      1 <0>         0.0000
     10 C10         3.8693   -4.3100   -0.6758 C.ar      1 <0>         0.0000
     11 N1          5.1821   -4.6242   -1.0852 N.pl3     1 <0>         0.0000
     12 H1         -1.5075   -1.7926    0.8094 H         1 <0>         0.0000
     13 H2         -0.0001    0.0000    0.0003 H         1 <0>         0.0000
     14 H3         -0.7268   -4.1255    0.9023 H         1 <0>         0.0000
     15 H4          2.2920   -0.5337   -0.7194 H         1 <0>         0.0000
     16 H5          1.0795   -5.8097    0.5368 H         1 <0>         0.0000
     17 H6          3.3630   -6.3482   -0.1773 H         1 <0>         0.0000
     18 H7          4.0918   -2.2104   -1.0841 H         1 <0>         0.0000
     19 H8          5.5075   -5.5657   -0.9994 H         1 <0>         0.0000
     20 H9          5.7953   -3.8857   -1.3651 H         1 <0>         0.0000
@<TRIPOS>BOND
     1    1    2 ar
     2    1    3 ar
     3    2    4 ar
     4    3    8 ar
     5    4    9 ar
     6    5    6 ar
     7    5    8 ar
     8    6   10 ar
     9    7    9 ar
    10    7   10 ar
    11    8    9 ar
    12   10   11 1
    13    1   12 1
    14    2   13 1
    15    3   14 1
    16    4   15 1
    17    5   16 1
    18    6   17 1
    19    7   18 1
    20   11   19 1
    21   11   20 1
@<TRIPOS>MOLECULE
N-methylaniline
   17    17     0     0     0
SMALL
NO_CHARGES

@<TRIPOS>ATOM
      1 C1          1.8851   -1.0363   -0.1124 C.ar      1 <0>         0.0000
      2 C2          0.8066   -0.4630    0.5610 C.ar      1 <0>         0.0000
      3 C3          2.9210   -1.6309    0.6081 C.ar      1 <0>         0.0000
      4 C4          0.7638   -0.4841    1.9551 C.ar      1 <0>         0.0000
      5 C5          2.8783   -1.6520    2.0022 C.ar      1 <0>         0.0000
      6 C6          1.7997   -1.0786    2.6757 C.ar      1 <0>         0.0000
      7 C7          2.9333   -1.0911    4.8984 C.3       1 <0>         0.0000
      8 N1          1.7568   -1.1003    4.0852 N.pl3     1 <0>         0.0000
      9 H1          1.9184   -1.0196   -1.1980 H         1 <0>         0.0000
     10 H2          0.0003   -0.0001   -0.0001 H         1 <0>         0.0000
     11 H3          3.7609   -2.0773    0.0835 H         1 <0>         0.0000
     12 H4         -0.0810   -0.0345    2.4703 H         1 <0>         0.0000
     13 H5          3.6911   -2.1183    2.5532 H         1 <0>         0.0000
     14 H6          3.8257   -1.0641    4.2677 H         1 <0>         0.0000
     15 H7          2.9694   -1.9892    5.5210 H         1 <0>         0.0000
     16 H8          2.9358   -0.2129    5.5496 H         1 <0>         0.0000
     17 H9          0.8499   -1.1243    4.5119 H         1 <0>         0.0000
@<TRIPOS>BOND
     1    1    2 ar
     2    1    3 ar
     3    2    4 ar
     4    3    5 ar
     5    4    6 ar
     6    5    6 ar
     7    6    8 1
     8    7    8 1
     9    1    9 1
    10    2   10 1
    11    3   11 1
    12    4   12 1
    13    5   13 1
    14    7   14 1
    15    7   15 1
    16    7   16 1
    17    8   17 1
@<TRIPOS>MOLECULE
N,N-dimethylaniline
   20    20     0     0     0
SMALL
NO_CHARGES

@<TRIPOS>ATOM
      1 C1          1.8851   -1.0363   -0.1124 C.ar      1 <0>         0.0000
      2 C2          0.8066   -0.4630    0.5610 C.ar      1 <0>         0.0000
      3 C3          2.9210   -1.6309    0.6081 C.ar      1 <0>         0.0000
      4 C4          0.7638   -0.4841    1.9551 C.ar      1 <0>         0.0000
      5 C5          2.8783   -1.6520    2.0022 C.ar      1 <0>         0.0000
      6 C6          1.7997   -1.0786    2.6757 C.ar      1 <0>         0.0000
      7 C7          0.6406   -0.5075    4.7948 C.3       1 <0>         0.0000
      8 C8          2.8216   -1.7280    4.8423 C.3       1 <0>         0.0000
      9 N1          1.7568   -1.1003    4.0852 N.pl3     1 <0>         0.0000
     10 H1          1.9184   -1.0196   -1.1980 H         1 <0>         0.0000
     11 H2          0.0003   -0.0001   -0.0001 H         1 <0>         0.0000
     12 H3          3.7609   -2.0773    0.0835 H         1 <0>         0.0000
     13 H4         -0.0810   -0.0345    2.4703 H         1 <0>         0.0000
     14 H5          3.6911   -2.1183    2.5532 H         1 <0>         0.0000
     15 H6          0.7793   -0.6187    5.8733 H         1 <0>         0.0000
     16 H7         -0.2933   -0.9982    4.5076 H         1 <0>         0.0000
     17 H8          0.5644    0.5570    4.5576 H         1 <0>         0.0000
     18 H9          2.6186   -1.6480    5.9134 H         1 <0>         0.0000
     19 H10         3.7763   -1.2402    4.6277 H         1 <0>         0.0000
     20 H11         2.9010   -2.7857    4.5772 H         1 <0>         0.0000
@<TRIPOS>BOND
     1    1    2 ar
     2    1    3 ar
     3    2    4 ar
     4    3    5 ar
     5    4    6 ar
     6    5    6 ar
     7    6    9 1
     8    7    9 1
     9    8    9 1
    10    1   10 1
    11    2   11 1
    12    3   12 1
    13    4   13 1
    14    5   14 1
    15    7   15 1
    16    7   16 1
    17    7   17 1
    18    8   18 1
    19    8   19 1
    20    8   20 1
@<TRIPOS>MOLECULE
nitrobenzene
   14    14     0     0     0
SMALL
NO_CHARGES

@<TRIPOS>ATOM
      1 C1          1.8851   -1.0363   -0.1124 C.ar      1 <0>         0.0000
      2 C2          0.8066   -0.4630    0.5610 C.ar      1 <0>         0.0000
      3 C3          2.9210   -1.6309    0.6081 C.ar      1 <0>         0.0000
      4 C4          0.7638   -0.4841    1.9551 C.ar      1 <0>         0.0000
      5 C5          2.8783   -1.6520    2.0022 C.ar      1 <0>         0.0000
      6 C6          1.7997   -1.0786    2.6757 C.ar      1 <0>         0.0000
      7 N1          1.7559   -1.1004    4.0947 N.pl3     1 <0>         0.0000
      8 O1          0.7765   -0.5792    4.6809 O.3       1 <0>         0.0000
      9 O2          2.6978   -1.6402    4.7239 O.2       1 <0>         0.0000
     10 H1          1.9180   -1.0212   -1.1979 H         1 <0>         0.0000
     11 H2         -0.0007   -0.0005    0.0006 H         1 <0>         0.0000
     12 H3          3.7604   -2.0780    0.0838 H         1 <0>         0.0000
     13 H4         -0.0829   -0.0338    2.4679 H         1 <0>         0.0000
     14 H5          3.6922   -2.1188    2.5516 H         1 <0>         0.0000
@<TRIPOS>BOND
     1    1    2 ar
     2    1    3 ar
     3    2    4 ar
     4    3    5 ar
     5    4    6 ar
     6    5    6 ar
     7    6    7 1
     8    7    8 1
     9    7    9 2
    10    1   10 1
    11    2   11 1
    12    3   12 1
    13    4   13 1
    14    5   14 1
@<TRIPOS>MOLECULE
2-nitrotoluene
   17    17     0     0     0
SMALL
NO_CHARGES

@<TRIPOS>ATOM
      1 C1          1.8851   -1.0363   -0.1124 C.ar      1 <0>         0.0000
      2 C2          0.8066   -0.4630    0.5610 C.ar      1 <0>         0.0000
      3 C3          2.9210   -1.6309    0.6081 C.ar      1 <0>         0.0000
      4 C4          0.7638   -0.4841    1.9551 C.ar      1 <0>         0.0000
      5 C5          2.8783   -1.6520    2.0022 C.ar      1 <0>         0.0000
      6 C6          1.7997   -1.0786    2.6757 C.ar      1 <0>         0.0000
      7 C7          4.0050   -2.2955    2.7442 C.3       1 <0>         0.0000
      8 N1          1.7360   -1.0868    4.0965 N.pl3     1 <0>         0.0000
      9 O1          1.1798   -2.0516    4.6723 O.3       1 <0>         0.0000
     10 O2          2.2381   -0.1292    4.7308 O.2       1 <0>         0.0000
     11 H1          1.9185   -1.0201   -1.1979 H         1 <0>         0.0000
     12 H2          0.0009    0.0015   -0.0000 H         1 <0>         0.0000
     13 H3          3.7559   -2.0758    0.0732 H         1 <0>         0.0000
     14 H4         -0.0826   -0.0323    2.4667 H         1 <0>         0.0000
     15 H5          4.7858   -1.5579    2.9610 H         1 <0>         0.0000
     16 H6          3.6589   -2.7282    3.6905 H         1 <0>         0.0000
     17 H7          4.4466   -3.1125    2.1610 H         1 <0>         0.0000
@<TRIPOS>BOND
     1    1    2 ar
     2    1    3 ar
     3    2    4 ar
     4    3    5 ar
     5    4    6 ar
     6    5    6 ar
     7    5    7 1
     8    6    8 1
     9    8    9 1
    10    8   10 2
    11    1   11 1
    12    2   12 1
    13    3   13 1
    14    4   14 1
    15    7   15 1
    16    7   16 1
    17    7   17 1
@<TRIPOS>MOLECULE
3-nitrotoluene
   17    17     0     0     0
SMALL
NO_CHARGES

@<TRIPOS>ATOM
      1 C1          1.8851   -1.0363   -0.1124 C.ar      1 <0>         0.0000
      2 C2          0.8066   -0.4630    0.5610 C.ar      1 <0>         0.0000
      3 C3          2.9210   -1.6309    0.6081 C.ar      1 <0>         0.0000
      4 C4          1.7997   -1.0786    2.6757 C.ar      1 <0>         0.0000
      5 C5          0.7638   -0.4841    1.9551 C.ar      1 <0>         0.0000
      6 C6          2.8783   -1.6520    2.0022 C.ar      1 <0>         0.0000
      7 C7         -0.3889    0.1296    2.6750 C.3       1 <0>         0.0000
      8 N1          3.9321   -2.2583    2.7355 N.pl3     1 <0>         0.0000
      9 O1          4.8926   -2.7693    2.1102 O.3       1 <0>         0.0000
     10 O2          3.8745   -2.2665    3.9890 O.2       1 <0>         0.0000
     11 H1          1.9181   -1.0204   -1.1979 H         1 <0>         0.0000
     12 H2          0.0041   -0.0015   -0.0081 H         1 <0>         0.0000
     13 H3          3.7556   -2.0741    0.0706 H         1 <0>         0.0000
     14 H4          1.7619   -1.0924    3.7629 H         1 <0>         0.0000
     15 H5         -1.1813   -0.6129    2.8306 H         1 <0>         0.0000
     16 H6         -0.0840    0.5231    3.6534 H         1 <0>         0.0000
     17 H7         -0.8082    0.9727    2.1104 H         1 <0>         0.0000
@<TRIPOS>BOND
     1    1    2 ar
     2    1    3 ar
     3    2    5 ar
     4    3    6 ar
     5    4    5 ar
     6    4    6 ar
     7    5    7 1
     8    6    8 1
     9    8    9 1
    10    8   10 2
    11    1   11 1
    12    2   12 1
    13    3   13 1
    14    4   14 1
    15    7   15 1
    16    7   16 1
    17    7   17 1
@<TRIPOS>MOLECULE
benzamide
   16    16     0     0     0
SMALL
NO_CHARGES

@<TRIPOS>ATOM
      1 C1          1.8851   -1.0363   -0.1124 C.ar      1 <0>         0.0000
      2 C2          0.8066   -0.4630    0.5610 C.ar      1 <0>         0.0000
      3 C3          2.9210   -1.6309    0.6081 C.ar      1 <0>         0.0000
      4 C4          0.7638   -0.4841    1.9551 C.ar      1 <0>         0.0000
      5 C5          2.8783   -1.6520    2.0022 C.ar      1 <0>         0.0000
      6 C6          1.7997   -1.0786    2.6757 C.ar      1 <0>         0.0000
      7 C7          1.7551   -1.1006    4.1291 C.2       1 <0>         0.0000
      8 N1          0.6570   -0.5148    4.7523 N.am      1 <0>         0.0000
      9 O1          2.6719   -1.6088    4.7983 O.2       1 <0>         0.0000
     10 H1          1.9184   -1.0198   -1.1978 H         1 <0>         0.0000
     11 H2          0.0002    0.0001   -0.0002 H         1 <0>         0.0000
     12 H3          3.7607   -2.0775    0.0838 H         1 <0>         0.0000
     13 H4         -0.0814   -0.0344    2.4697 H         1 <0>         0.0000
     14 H5          3.6911   -2.1179    2.5534 H         1 <0>         0.0000
     15 H6         -0.0705   -0.0952    4.1836 H         1 <0>         0.0000
     16 H7          0.5682   -0.4981    5.7631 H         1 <0>         0.0000
@<TRIPOS>BOND
     1    1    2 ar
     2    1    3 ar
     3    2    4 ar
     4    3    5 ar
     5    4    6 ar
     6    5    6 ar
     7    6    7 1
     8    7    8 am
     9    7    9 2
    10    1   10 1
    11    2   11 1
    12    3   12 1
    13    4   13 1
    14    5   14 1
    15    8   15 1
    16    8   16 1
@<TRIPOS>MOLECULE
phenol
   13    13     0     0     0
SMALL
NO_CHARGES

@<TRIPOS>ATOM
      1 C1          1.8851   -1.0363   -0.1124 C.ar      1 <0>         0.0000
      2 C2          0.8066   -0.4630    0.5610 C.ar      1 <0>         0.0000
      3 C3          2.9210   -1.6309    0.6081 C.ar      1 <0>         0.0000
      4 C4          0.7638   -0.4841    1.9551 C.ar      1 <0>         0.0000
      5 C5          2.8783   -1.6520    2.0022 C.ar      1 <0>         0.0000
      6 C6          1.7997   -1.0786    2.6757 C.ar      1 <0>         0.0000
      7 O1          1.7593   -1.0981    4.0359 O.3       1 <0>         0.0000
      8 H1          1.9184   -1.0205   -1.1979 H         1 <0>         0.0000
      9 H2         -0.0001    0.0002    0.0001 H         1 <0>         0.0000
     10 H3          3.7605   -2.0773    0.0830 H         1 <0>         0.0000
     11 H4         -0.0785   -0.0345    2.4737 H         1 <0>         0.0000
     12 H5          3.6889   -2.1149    2.5584 H         1 <0>         0.0000
     13 H6          0.9529   -0.6623    4.3548 H         1 <0>         0.0000
@<TRIPOS>BOND
     1    1    2 ar
     2    1    3 ar
     3    2    4 ar
     4    3    5 ar
     5    4    6 ar
     6    5    6 ar
     7    6    7 1
     8    1    8 1
     9    2    9 1
    10    3   10 1
    11    4   11 1
    12    5   12 1
    13    7   13 1
@<TRIPOS>MOLECULE
o-cresol
   16    16     0     0     0
SMALL
NO_CHARGES

@<TRIPOS>ATOM
      1 C1          1.8851   -1.0363   -0.1124 C.ar      1 <0>         0.0000
      2 C2          0.8066   -0.4630    0.5610 C.ar      1 <0>         0.0000
      3 C3          2.9210   -1.6309    0.6081 C.ar      1 <0>         0.0000
      4 C4          0.7638   -0.4841    1.9551 C.ar      1 <0>         0.0000
      5 C5          2.8783   -1.6520    2.0022 C.ar      1 <0>         0.0000
      6 C6          1.7997   -1.0786    2.6757 C.ar      1 <0>         0.0000
      7 C7          3.9959   -2.2923    2.7570 C.3       1 <0>         0.0000
      8 O1          1.7429   -1.0900    4.0369 O.3       1 <0>         0.0000
      9 H1          1.9192   -1.0196   -1.1981 H         1 <0>         0.0000
     10 H2          0.0007    0.0005   -0.0004 H         1 <0>         0.0000
     11 H3          3.7577   -2.0735    0.0741 H         1 <0>         0.0000
     12 H4         -0.0790   -0.0358    2.4741 H         1 <0>         0.0000
     13 H5          4.7769   -1.5553    2.9782 H         1 <0>         0.0000
     14 H6          3.6419   -2.7205    3.7031 H         1 <0>         0.0000
     15 H7          4.4432   -3.1136    2.1830 H         1 <0>         0.0000
     16 H8          0.9328   -0.6524    4.3420 H         1 <0>         0.0000
@<TRIPOS>BOND
     1    1    2 ar
     2    1    3 ar
     3    2    4 ar
     4    3    5 ar
     5    4    6 ar
     6    5    6 ar
     7    5    7 1
     8    6    8 1
     9    1    9 1
    10    2   10 1
    11    3   11 1
    12    4   12 1
    13    7   13 1
    14    7   14 1
    15    7   15 1
    16    8   16 1
@<TRIPOS>MOLECULE
p-cresol
   16    16     0     0     0
SMALL
NO_CHARGES

@<TRIPOS>ATOM
      1 C1          1.8851   -1.0363   -0.1124 C.ar      1 <0>         0.0000
      2 C2          2.8783   -1.6520    2.0022 C.ar      1 <0>         0.0000
      3 C3          0.8066   -0.4630    0.5610 C.ar      1 <0>         0.0000
      4 C4          1.7997   -1.0786    2.6757 C.ar      1 <0>         0.0000
      5 C5          2.9210   -1.6309    0.6081 C.ar      1 <0>         0.0000
      6 C6          0.7638   -0.4841    1.9551 C.ar      1 <0>         0.0000
      7 C7          4.0745   -2.2433   -0.1117 C.3       1 <0>         0.0000
      8 O1         -0.2881    0.0765    2.6120 O.3       1 <0>         0.0000
      9 H1          1.9102   -1.0154   -1.1986 H         1 <0>         0.0000
     10 H2          3.6809   -2.1132    2.5719 H         1 <0>         0.0000
     11 H3          0.0027   -0.0010   -0.0060 H         1 <0>         0.0000
     12 H4          1.7724   -1.0980    3.7615 H         1 <0>         0.0000
     13 H5          4.8663   -1.5001   -0.2668 H         1 <0>         0.0000
     14 H6          4.4944   -3.0862    0.4525 H         1 <0>         0.0000
     15 H7          3.7701   -2.6367   -1.0904 H         1 <0>         0.0000
     16 H8         -0.1742   -0.0173    3.5713 H         1 <0>         0.0000
@<TRIPOS>BOND
     1    1    3 ar
     2    1    5 ar
     3    2    4 ar
     4    2    5 ar
     5    3    6 ar
     6    4    6 ar
     7    5    7 1
     8    6    8 1
     9    1    9 1
    10    2   10 1
    11    3   11 1
    12    4   12 1
    13    7   13 1
    14    7   14 1
    15    7   15 1
    16    8   16 1
@<TRIPOS>MOLECULE
2,3-dimethylphenol
   19    19     0     0     0
SMALL
NO_CHARGES

@<TRIPOS>ATOM
      1 C1          1.8851   -1.0363   -0.1124 C.ar      1 <0>         0.0000
      2 C2          0.8066   -0.4630    0.5610 C.ar      1 <0>         0.0000
      3 C3          2.9210   -1.6309    0.6081 C.ar      1 <0>         0.0000
      4 C4          0.7638   -0.4841    1.9551 C.ar      1 <0>         0.0000
      5 C5          1.7997   -1.0786    2.6757 C.ar      1 <0>         0.0000
      6 C6          2.8783   -1.6520    2.0022 C.ar      1 <0>         0.0000
      7 C7         -0.4023    0.1366    2.6520 C.3       1 <0>         0.0000
      8 C8          1.7602   -1.1027    4.1704 C.3       1 <0>         0.0000
      9 O1          3.8999   -2.2361    2.6889 O.3       1 <0>         0.0000
     10 H1          1.9177   -1.0190   -1.1979 H         1 <0>         0.0000
     11 H2          0.0047   -0.0010   -0.0090 H         1 <0>         0.0000
     12 H3          3.7588   -2.0743    0.0770 H         1 <0>         0.0000
     13 H4         -1.1951   -0.6056    2.8004 H         1 <0>         0.0000
     14 H5         -0.1113    0.5379    3.6306 H         1 <0>         0.0000
     15 H6         -0.8107    0.9736    2.0722 H         1 <0>         0.0000
     16 H7          1.2531   -2.0084    4.5205 H         1 <0>         0.0000
     17 H8          2.7719   -1.0813    4.5921 H         1 <0>         0.0000
     18 H9          1.2296   -0.2281    4.5650 H         1 <0>         0.0000
     19 H10         4.5638   -2.5816    2.0718 H         1 <0>         0.0000
@<TRIPOS>BOND
     1    1    2 ar
     2    1    3 ar
     3    2    4 ar
     4    3    6 ar
     5    4    5 ar
     6    4    7 1
     7    5    6 ar
     8    5    8 1
     9    6    9 1
    10    1   10 1
    11    2   11 1
    12    3   12 1
    13    7   13 1
    14    7   14 1
    15    7   15 1
    16    8   16 1
    17    8   17 1
    18    8   18 1
    19    9   19 1
@<TRIPOS>MOLECULE
2,4-dimethylphenol
   19    19     0     0     0
SMALL
NO_CHARGES

@<TRIPOS>ATOM
      1 C1          1.8851   -1.0363   -0.1124 C.ar      1 <0>         0.0000
      2 C2          0.8066   -0.4630    0.5610 C.ar      1 <0>         0.0000
      3 C3          2.8783   -1.6520    2.0022 C.ar      1 <0>         0.0000
      4 C4          2.9210   -1.6309    0.6081 C.ar      1 <0>         0.0000
      5 C5          1.7997   -1.0786    2.6757 C.ar      1 <0>         0.0000
      6 C6          0.7638   -0.4841    1.9551 C.ar      1 <0>         0.0000
      7 C7          4.0732   -2.2449   -0.1125 C.3       1 <0>         0.0000
      8 C8          1.7695   -1.1114    4.1682 C.3       1 <0>         0.0000
      9 O1         -0.2965    0.0820    2.5967 O.3       1 <0>         0.0000
     10 H1          1.9101   -1.0160   -1.1988 H         1 <0>         0.0000
     11 H2          0.0023   -0.0033   -0.0071 H         1 <0>         0.0000
     12 H3          3.6862   -2.1161    2.5631 H         1 <0>         0.0000
     13 H4          4.8653   -1.5025   -0.2692 H         1 <0>         0.0000
     14 H5          4.4930   -3.0877    0.4520 H         1 <0>         0.0000
     15 H6          3.7673   -2.6390   -1.0905 H         1 <0>         0.0000
     16 H7          2.2587   -0.2200    4.5780 H         1 <0>         0.0000
     17 H8          0.7392   -1.1481    4.5434 H         1 <0>         0.0000
     18 H9          2.2821   -2.0006    4.5559 H         1 <0>         0.0000
     19 H10        -0.9214    0.4485    1.9517 H         1 <0>         0.0000
@<TRIPOS>BOND
     1    1    2 ar
     2    1    4 ar
     3    2    6 ar
     4    3    4 ar
     5    3    5 ar
     6    4    7 1
     7    5    6 ar
     8    5    8 1
     9    6    9 1
    10    1   10 1
    11    2   11 1
    12    3   12 1
    13    7   13 1
    14    7   14 1
    15    7   15 1
    16    8   16 1
    17    8   17 1
    18    8   18 1
    19    9   19 1
@<TRIPOS>MOLECULE
2,5-dimethylphenol
   19    19     0     0     0
SMALL
NO_CHARGES

@<TRIPOS>ATOM
      1 C1          1.8851   -1.0363   -0.1124 C.ar      1 <0>         0.0000
      2 C2          0.8066   -0.4630    0.5610 C.ar      1 <0>         0.0000
      3 C3          2.8783   -1.6520    2.0022 C.ar      1 <0>         0.0000
      4 C4          2.9210   -1.6309    0.6081 C.ar      1 <0>         0.0000
      5 C5          0.7638   -0.4841    1.9551 C.ar      1 <0>         0.0000
      6 C6          1.7997   -1.0786    2.6757 C.ar      1 <0>         0.0000
      7 C7          4.0737   -2.2444   -0.1125 C.3       1 <0>         0.0000
      8 C8         -0.3977    0.1356    2.6590 C.3       1 <0>         0.0000
      9 O1          1.7731   -1.1089    4.0375 O.3       1 <0>         0.0000
     10 H1          1.9108   -1.0163   -1.1988 H         1 <0>         0.0000
     11 H2          0.0038   -0.0034   -0.0095 H         1 <0>         0.0000
     12 H3          3.6844   -2.1153    2.5658 H         1 <0>         0.0000
     13 H4          4.8656   -1.5016   -0.2685 H         1 <0>         0.0000
     14 H5          4.4935   -3.0871    0.4519 H         1 <0>         0.0000
     15 H6          3.7681   -2.6381   -1.0906 H         1 <0>         0.0000
     16 H7         -1.1911   -0.6059    2.8095 H         1 <0>         0.0000
     17 H8         -0.1021    0.5342    3.6376 H         1 <0>         0.0000
     18 H9         -0.8086    0.9749    2.0838 H         1 <0>         0.0000
     19 H10         2.5634   -1.5566    4.3781 H         1 <0>         0.0000
@<TRIPOS>BOND
     1    1    2 ar
     2    1    4 ar
     3    2    5 ar
     4    3    4 ar
     5    3    6 ar
     6    4    7 1
     7    5    6 ar
     8    5    8 1
     9    6    9 1
    10    1   10 1
    11    2   11 1
    12    3   12 1
    13    7   13 1
    14    7   14 1
    15    7   15 1
    16    8   16 1
    17    8   17 1
    18    8   18 1
    19    9   19 1
@<TRIPOS>MOLECULE
2,6-dimethylphenol
   19    19     0     0     0
SMALL
NO_CHARGES

@<TRIPOS>ATOM
      1 C1          1.8851   -1.0363   -0.1124 C.ar      1 <0>         0.0000
      2 C2          0.8066   -0.4630    0.5610 C.ar      1 <0>         0.0000
      3 C3          2.9210   -1.6309    0.6081 C.ar      1 <0>         0.0000
      4 C4          0.7638   -0.4841    1.9551 C.ar      1 <0>         0.0000
      5 C5          2.8783   -1.6520    2.0022 C.ar      1 <0>         0.0000
      6 C6          1.7997   -1.0786    2.6757 C.ar      1 <0>         0.0000
      7 C7         -0.3995    0.1347    2.6576 C.3       1 <0>         0.0000
      8 C8          3.9970   -2.2931    2.7555 C.3       1 <0>         0.0000
      9 O1          1.7585   -1.0981    4.0388 O.3       1 <0>         0.0000
     10 H1          1.9183   -1.0200   -1.1979 H         1 <0>         0.0000
     11 H2          0.0045   -0.0021   -0.0092 H         1 <0>         0.0000
     12 H3          3.7571   -2.0747    0.0745 H         1 <0>         0.0000
     13 H4         -1.1918   -0.6079    2.8075 H         1 <0>         0.0000
     14 H5         -0.1053    0.5342    3.6360 H         1 <0>         0.0000
     15 H6         -0.8106    0.9729    2.0812 H         1 <0>         0.0000
     16 H7          4.7780   -1.5562    2.9761 H         1 <0>         0.0000
     17 H8          3.6437   -2.7217    3.7015 H         1 <0>         0.0000
     18 H9          4.4432   -3.1139    2.1803 H         1 <0>         0.0000
     19 H10         2.5449   -1.5434    4.3900 H         1 <0>         0.0000
@<TRIPOS>BOND
     1    1    2 ar
     2    1    3 ar
     3    2    4 ar
     4    3    5 ar
     5    4    6 ar
     6    4    7 1
     7    5    6 ar
     8    5    8 1
     9    6    9 1
    10    1   10 1
    11    2   11 1
    12    3   12 1
    13    7   13 1
    14    7   14 1
    15    7   15 1
    16    8   16 1
    17    8   17 1
    18    8   18 1
    19    9   19 1
@<TRIPOS>MOLECULE
3,4-dimethylphenol
   19    19     0     0     0
SMALL
NO_CHARGES

@<TRIPOS>ATOM
      1 C1          1.8851   -1.0363   -0.1124 C.ar      1 <0>         0.0000
      2 C2          0.8066   -0.4630    0.5610 C.ar      1 <0>         0.0000
      3 C3          1.7997   -1.0786    2.6757 C.ar      1 <0>         0.0000
      4 C4          2.9210   -1.6309    0.6081 C.ar      1 <0>         0.0000
      5 C5          2.8783   -1.6520    2.0022 C.ar      1 <0>         0.0000
      6 C6          0.7638   -0.4841    1.9551 C.ar      1 <0>         0.0000
      7 C7          4.0652   -2.2381   -0.1350 C.3       1 <0>         0.0000
      8 C8          3.9752   -2.2838    2.7946 C.3       1 <0>         0.0000
      9 O1         -0.2888    0.0748    2.6123 O.3       1 <0>         0.0000
     10 H1          1.9097   -1.0149   -1.1989 H         1 <0>         0.0000
     11 H2          0.0027   -0.0013   -0.0059 H         1 <0>         0.0000
     12 H3          1.7634   -1.0930    3.7626 H         1 <0>         0.0000
     13 H4          4.8527   -1.4926   -0.2952 H         1 <0>         0.0000
     14 H5          4.4921   -3.0845    0.4171 H         1 <0>         0.0000
     15 H6          3.7444   -2.6230   -1.1111 H         1 <0>         0.0000
     16 H7          3.7574   -3.3443    2.9665 H         1 <0>         0.0000
     17 H8          4.9372   -2.2045    2.2734 H         1 <0>         0.0000
     18 H9          4.0971   -1.7898    3.7666 H         1 <0>         0.0000
     19 H10        -0.9233    0.4448    1.9780 H         1 <0>         0.0000
@<TRIPOS>BOND
     1    1    2 ar
     2    1    4 ar
     3    2    6 ar
     4    3    5 ar
     5    3    6 ar
     6    4    5 ar
     7    4    7 1
     8    5    8 1
     9    6    9 1
    10    1   10 1
    11    2   11 1
    12    3   12 1
    13    7   13 1
    14    7   14 1
    15    7   15 1
    16    8   16 1
    17    8   17 1
    18    8   18 1
    19    9   19 1
@<TRIPOS>MOLECULE
3,5-dimethylphenol
   19    19     0     0     0
SMALL
NO_CHARGES

@<TRIPOS>ATOM
      1 C1          1.8851   -1.0363   -0.1124 C.ar      1 <0>         0.0000
      2 C2          0.7638   -0.4841    1.9551 C.ar      1 <0>         0.0000
      3 C3          2.8783   -1.6520    2.0022 C.ar      1 <0>         0.0000
      4 C4          0.8066   -0.4630    0.5610 C.ar      1 <0>         0.0000
      5 C5          2.9210   -1.6309    0.6081 C.ar      1 <0>         0.0000
      6 C6          1.7997   -1.0786    2.6757 C.ar      1 <0>         0.0000
      7 C7         -0.3008    0.1719   -0.2102 C.3       1 <0>         0.0000
      8 C8          4.0740   -2.2446   -0.1114 C.3       1 <0>         0.0000
      9 O1          1.7578   -1.0997    4.0361 O.3       1 <0>         0.0000
     10 H1          1.9188   -1.0197   -1.1994 H         1 <0>         0.0000
     11 H2         -0.0762   -0.0392    2.4830 H         1 <0>         0.0000
     12 H3          3.6838   -2.1158    2.5664 H         1 <0>         0.0000
     13 H4         -1.0807   -0.5656   -0.4362 H         1 <0>         0.0000
     14 H5         -0.7555    0.9978    0.3521 H         1 <0>         0.0000
     15 H6          0.0633    0.5942   -1.1559 H         1 <0>         0.0000
     16 H7          4.8662   -1.5020   -0.2673 H         1 <0>         0.0000
     17 H8          4.4936   -3.0872    0.4535 H         1 <0>         0.0000
     18 H9          3.7692   -2.6387   -1.0897 H         1 <0>         0.0000
     19 H10         0.9506   -0.6651    4.3544 H         1 <0>         0.0000
@<TRIPOS>BOND
     1    1    4 ar
     2    1    5 ar
     3    2    4 ar
     4    2    6 ar
     5    3    5 ar
     6    3    6 ar
     7    4    7 1
     8    5    8 1
     9    6    9 1
    10    1   10 1
    11    2   11 1
    12    3   12 1
    13    7   13 1
    14    7   14 1
    15    7   15 1
    16    8   16 1
    17    8   17 1
    18    8   18 1
    19    9   19 1
@<TRIPOS>MOLECULE
3-ethylphenol
   19    19     0     0     0
SMALL
NO_CHARGES

@<TRIPOS>ATOM
      1 C1          1.8851   -1.0363   -0.1124 C.ar      1 <0>         0.0000
      2 C2          0.8066   -0.4630    0.5610 C.ar      1 <0>         0.0000
      3 C3          2.9210   -1.6309    0.6081 C.ar      1 <0>         0.0000
      4 C4          1.7997   -1.0786    2.6757 C.ar      1 <0>         0.0000
      5 C5          0.7638   -0.4841    1.9551 C.ar      1 <0>         0.0000
      6 C6          2.8783   -1.6520    2.0022 C.ar      1 <0>         0.0000
      7 C7         -0.1564    1.6038    2.9945 C.3       1 <0>         0.0000
      8 C8         -0.3892    0.1293    2.6750 C.3       1 <0>         0.0000
      9 O1          3.8889   -2.2327    2.7053 O.3       1 <0>         0.0000
     10 H1          1.9181   -1.0202   -1.1978 H         1 <0>         0.0000
     11 H2          0.0044   -0.0017   -0.0089 H         1 <0>         0.0000
     12 H3          3.7583   -2.0757    0.0777 H         1 <0>         0.0000
     13 H4          1.7692   -1.0964    3.7626 H         1 <0>         0.0000
     14 H5          0.7541    1.7380    3.5884 H         1 <0>         0.0000
     15 H6         -0.9961    2.0142    3.5639 H         1 <0>         0.0000
     16 H7         -0.0487    2.1922    2.0770 H         1 <0>         0.0000
     17 H8         -1.3105    0.0316    2.0784 H         1 <0>         0.0000
     18 H9         -0.5903   -0.4145    3.6120 H         1 <0>         0.0000
     19 H10         3.7161   -2.1679    3.6580 H         1 <0>         0.0000
@<TRIPOS>BOND
     1    1    2 ar
     2    1    3 ar
     3    2    5 ar
     4    3    6 ar
     5    4    5 ar
     6    4    6 ar
     7    5    8 1
     8    6    9 1
     9    7    8 1
    10    1   10 1
    11    2   11 1
    12    3   12 1
    13    4   13 1
    14    7   14 1
    15    7   15 1
    16    7   16 1
    17    8   17 1
    18    8   18 1
    19    9   19 1
@<TRIPOS>MOLECULE
4-ethylphenol
   19    19     0     0     0
SMALL
NO_CHARGES

@<TRIPOS>ATOM
      1 C1          1.8851   -1.0363   -0.1124 C.ar      1 <0>         0.0000
      2 C2          2.8783   -1.6520    2.0022 C.ar      1 <0>         0.0000
      3 C3          0.8066   -0.4630    0.5610 C.ar      1 <0>         0.0000
      4 C4          1.7997   -1.0786    2.6757 C.ar      1 <0>         0.0000
      5 C5          2.9210   -1.6309    0.6081 C.ar      1 <0>         0.0000
      6 C6          0.7638   -0.4841    1.9551 C.ar      1 <0>         0.0000
      7 C7          3.8428   -3.7179   -0.4316 C.3       1 <0>         0.0000
      8 C8          4.0745   -2.2433   -0.1117 C.3       1 <0>         0.0000
      9 O1         -0.2881    0.0765    2.6120 O.3       1 <0>         0.0000
     10 H1          1.9102   -1.0154   -1.1986 H         1 <0>         0.0000
     11 H2          3.6809   -2.1132    2.5719 H         1 <0>         0.0000
     12 H3          0.0027   -0.0010   -0.0060 H         1 <0>         0.0000
     13 H4          1.7724   -1.0980    3.7615 H         1 <0>         0.0000
     14 H5          3.6395   -4.2903    0.4798 H         1 <0>         0.0000
     15 H6          4.7231   -4.1524   -0.9157 H         1 <0>         0.0000
     16 H7          2.9884   -3.8440   -1.1052 H         1 <0>         0.0000
     17 H8          4.2755   -1.6992   -1.0486 H         1 <0>         0.0000
     18 H9          4.9957   -2.1451    0.4851 H         1 <0>         0.0000
     19 H10        -0.1742   -0.0173    3.5713 H         1 <0>         0.0000
@<TRIPOS>BOND
     1    1    3 ar
     2    1    5 ar
     3    2    4 ar
     4    2    5 ar
     5    3    6 ar
     6    4    6 ar
     7    5    8 1
     8    6    9 1
     9    7    8 1
    10    1   10 1
    11    2   11 1
    12    3   12 1
    13    4   13 1
    14    7   14 1
    15    7   15 1
    16    7   16 1
    17    8   17 1
    18    8   18 1
    19    9   19 1
@<TRIPOS>MOLECULE
4-n-propylphenol
   22    22     0     0     0
SMALL
NO_CHARGES

@<TRIPOS>ATOM
      1 C1          1.8851   -1.0363   -0.1124 C.ar      1 <0>         0.0000
      2 C2          2.8783   -1.6520    2.0022 C.ar      1 <0>         0.0000
      3 C3          0.8066   -0.4630    0.5610 C.ar      1 <0>         0.0000
      4 C4          1.7997   -1.0786    2.6757 C.ar      1 <0>         0.0000
      5 C5          2.9210   -1.6309    0.6081 C.ar      1 <0>         0.0000
      6 C6          0.7638   -0.4841    1.9551 C.ar      1 <0>         0.0000
      7 C7          4.9975   -4.3408   -1.1946 C.3       1 <0>         0.0000
      8 C8          4.0745   -2.2433   -0.1117 C.3       1 <0>         0.0000
      9 C9          3.8350   -3.7270   -0.4306 C.3       1 <0>         0.0000
     10 O1         -0.2881    0.0765    2.6120 O.3       1 <0>         0.0000
     11 H1          1.9102   -1.0154   -1.1986 H         1 <0>         0.0000
     12 H2          3.6809   -2.1132    2.5719 H         1 <0>         0.0000
     13 H3          0.0027   -0.0010   -0.0060 H         1 <0>         0.0000
     14 H4          1.7724   -1.0980    3.7615 H         1 <0>         0.0000
     15 H5          5.1786   -3.8035   -2.1310 H         1 <0>         0.0000
     16 H6          5.9156   -4.3145   -0.5992 H         1 <0>         0.0000
     17 H7          4.7810   -5.3854   -1.4391 H         1 <0>         0.0000
     18 H8          4.2767   -1.7011   -1.0513 H         1 <0>         0.0000
     19 H9          4.9982   -2.1479    0.4844 H         1 <0>         0.0000
     20 H10         3.6809   -4.2875    0.4995 H         1 <0>         0.0000
     21 H11         2.9183   -3.8374   -1.0225 H         1 <0>         0.0000
     22 H12        -0.1742   -0.0173    3.5713 H         1 <0>         0.0000
@<TRIPOS>BOND
     1    1    3 ar
     2    1    5 ar
     3    2    4 ar
     4    2    5 ar
     5    3    6 ar
     6    4    6 ar
     7    5    8 1
     8    6   10 1
     9    7    9 1
    10    8    9 1
    11    1   11 1
    12    2   12 1
    13    3   13 1
    14    4   14 1
    15    7   15 1
    16    7   16 1
    17    7   17 1
    18    8   18 1
    19    8   19 1
    20    9   20 1
    21    9   21 1
    22   10   22 1
@<TRIPOS>MOLECULE
4-tert-butylphenol
   25    25     0     0     0
SMALL
NO_CHARGES

@<TRIPOS>ATOM
      1 C1         -0.9663   -1.0428    2.4403 C.ar      1 <0>         0.0000
      2 C2         -3.2648   -1.5363    1.8835 C.ar      1 <0>         0.0000
      3 C3         -0.9820   -2.0536    3.4013 C.ar      1 <0>         0.0000
      4 C4         -3.2806   -2.5472    2.8445 C.ar      1 <0>         0.0000
      5 C5         -2.1077   -0.7840    1.6815 C.ar      1 <0>         0.0000
      6 C6         -2.1391   -2.8059    3.6034 C.ar      1 <0>         0.0000
      7 C7         -1.0055    0.0255   -0.4341 C.3       1 <0>         0.0000
      8 C8         -1.7775    1.6835    1.2954 C.3       1 <0>         0.0000
      9 C9         -3.4286    0.4950   -0.1338 C.3       1 <0>         0.0000
     10 C10        -2.0904    0.3299    0.6216 C.3       1 <0>         0.0000
     11 O1         -2.1538   -3.7931    4.5402 O.3       1 <0>         0.0000
     12 H1         -0.0605   -0.4616    2.2897 H         1 <0>         0.0000
     13 H2         -4.1590   -1.3416    1.2969 H         1 <0>         0.0000
     14 H3         -0.0894   -2.2506    3.9892 H         1 <0>         0.0000
     15 H4         -4.1848   -3.1298    2.9968 H         1 <0>         0.0000
     16 H5         -0.9722    0.8062   -1.2031 H         1 <0>         0.0000
     17 H6         -0.0039   -0.0333    0.0056 H         1 <0>         0.0000
     18 H7         -1.2009   -0.9294   -0.9363 H         1 <0>         0.0000
     19 H8         -1.7547    2.5093    0.5760 H         1 <0>         0.0000
     20 H9         -2.5344    1.9349    2.0476 H         1 <0>         0.0000
     21 H10        -0.8033    1.6580    1.7980 H         1 <0>         0.0000
     22 H11        -3.3662    1.2993   -0.8768 H         1 <0>         0.0000
     23 H12        -3.7038   -0.4195   -0.6722 H         1 <0>         0.0000
     24 H13        -4.2482    0.7498    0.5482 H         1 <0>         0.0000
     25 H14        -3.0237   -4.2228    4.5624 H         1 <0>         0.0000
@<TRIPOS>BOND
     1    1    3 ar
     2    1    5 ar
     3    2    4 ar
     4    2    5 ar
     5    3    6 ar
     6    4    6 ar
     7    5   10 1
     8    6   11 1
     9    7   10 1
    10    8   10 1
    11    9   10 1
    12    1   12 1
    13    2   13 1
    14    3   14 1
    15    4   15 1
    16    7   16 1
    17    7   17 1
    18    7   18 1
    19    8   19 1
    20    8   20 1
    21    8   21 1
    22    9   22 1
    23    9   23 1
    24    9   24 1
    25   11   25 1
@<TRIPOS>MOLECULE
2-fluorophenol
   13    13     0     0     0
SMALL
NO_CHARGES

@<TRIPOS>ATOM
      1 C1          1.8851   -1.0363   -0.1124 C.ar      1 <0>         0.0000
      2 C2          0.8066   -0.4630    0.5610 C.ar      1 <0>         0.0000
      3 C3          2.9210   -1.6309    0.6081 C.ar      1 <0>         0.0000
      4 C4          0.7638   -0.4841    1.9551 C.ar      1 <0>         0.0000
      5 C5          2.8783   -1.6520    2.0022 C.ar      1 <0>         0.0000
      6 C6          1.7997   -1.0786    2.6757 C.ar      1 <0>         0.0000
      7 O1          3.8898   -2.2322    2.7044 O.3       1 <0>         0.0000
      8 F1          1.7528   -1.0956    4.0149 F         1 <0>         0.0000
      9 H1          1.9179   -1.0202   -1.1980 H         1 <0>         0.0000
     10 H2          0.0004    0.0004   -0.0001 H         1 <0>         0.0000
     11 H3          3.7582   -2.0761    0.0777 H         1 <0>         0.0000
     12 H4         -0.0757   -0.0379    2.4796 H         1 <0>         0.0000
     13 H5          4.5616   -2.5831    2.0984 H         1 <0>         0.0000
@<TRIPOS>BOND
     1    1    2 ar
     2    1    3 ar
     3    2    4 ar
     4    3    5 ar
     5    4    6 ar
     6    5    6 ar
     7    5    7 1
     8    6    8 1
     9    1    9 1
    10    2   10 1
    11    3   11 1
    12    4   12 1
    13    7   13 1
@<TRIPOS>MOLECULE
4-fluorophenol
   13    13     0     0     0
SMALL
NO_CHARGES

@<TRIPOS>ATOM
      1 C1          1.8851   -1.0363   -0.1124 C.ar      1 <0>         0.0000
      2 C2          2.8783   -1.6520    2.0022 C.ar      1 <0>         0.0000
      3 C3          0.8066   -0.4630    0.5610 C.ar      1 <0>         0.0000
      4 C4          1.7997   -1.0786    2.6757 C.ar      1 <0>         0.0000
      5 C5          2.9210   -1.6309    0.6081 C.ar      1 <0>         0.0000
      6 C6          0.7638   -0.4841    1.9551 C.ar      1 <0>         0.0000
      7 O1          3.9735   -2.1903   -0.0490 O.3       1 <0>         0.0000
      8 F1         -0.2720    0.0665    2.6018 F         1 <0>         0.0000
      9 H1          1.9127   -1.0167   -1.1985 H         1 <0>         0.0000
     10 H2          3.6821   -2.1136    2.5691 H         1 <0>         0.0000
     11 H3         -0.0001   -0.0001    0.0004 H         1 <0>         0.0000
     12 H4          1.7661   -1.0949    3.7610 H         1 <0>         0.0000
     13 H5          4.6077   -2.5606    0.5854 H         1 <0>         0.0000
@<TRIPOS>BOND
     1    1    3 ar
     2    1    5 ar
     3    2    4 ar
     4    2    5 ar
     5    3    6 ar
     6    4    6 ar
     7    5    7 1
     8    6    8 1
     9    1    9 1
    10    2   10 1
    11    3   11 1
    12    4   12 1
    13    7   13 1
@<TRIPOS>MOLECULE
2-chlorophenol
   13    13     0     0     0
SMALL
NO_CHARGES

@<TRIPOS>ATOM
      1 C1          1.8851   -1.0363   -0.1124 C.ar      1 <0>         0.0000
      2 C2          0.8066   -0.4630    0.5610 C.ar      1 <0>         0.0000
      3 C3          2.9210   -1.6309    0.6081 C.ar      1 <0>         0.0000
      4 C4          0.7638   -0.4841    1.9551 C.ar      1 <0>         0.0000
      5 C5          2.8783   -1.6520    2.0022 C.ar      1 <0>         0.0000
      6 C6          1.7997   -1.0786    2.6757 C.ar      1 <0>         0.0000
      7 O1          3.9043   -2.2397    2.6805 O.3       1 <0>         0.0000
      8 Cl1         1.7208   -1.0904    4.3989 Cl        1 <0>         0.0000
      9 H1          1.9184   -1.0198   -1.1979 H         1 <0>         0.0000
     10 H2          0.0001   -0.0002   -0.0002 H         1 <0>         0.0000
     11 H3          3.7581   -2.0756    0.0768 H         1 <0>         0.0000
     12 H4         -0.0836   -0.0331    2.4651 H         1 <0>         0.0000
     13 H5          4.5634   -2.5833    2.0576 H         1 <0>         0.0000
@<TRIPOS>BOND
     1    1    2 ar
     2    1    3 ar
     3    2    4 ar
     4    3    5 ar
     5    4    6 ar
     6    5    6 ar
     7    5    7 1
     8    6    8 1
     9    1    9 1
    10    2   10 1
    11    3   11 1
    12    4   12 1
    13    7   13 1
@<TRIPOS>MOLECULE
3-chlorophenol
   13    13     0     0     0
SMALL
NO_CHARGES

@<TRIPOS>ATOM
      1 C1          1.8851   -1.0363   -0.1124 C.ar      1 <0>         0.0000
      2 C2          0.8066   -0.4630    0.5610 C.ar      1 <0>         0.0000
      3 C3          2.9210   -1.6309    0.6081 C.ar      1 <0>         0.0000
      4 C4          1.7997   -1.0786    2.6757 C.ar      1 <0>         0.0000
      5 C5          0.7638   -0.4841    1.9551 C.ar      1 <0>         0.0000
      6 C6          2.8783   -1.6520    2.0022 C.ar      1 <0>         0.0000
      7 O1         -0.2892    0.0742    2.6122 O.3       1 <0>         0.0000
      8 Cl1         4.1566   -2.3860    2.8899 Cl        1 <0>         0.0000
      9 H1          1.9179   -1.0201   -1.1979 H         1 <0>         0.0000
     10 H2          0.0026   -0.0012   -0.0056 H         1 <0>         0.0000
     11 H3          3.7555   -2.0732    0.0700 H         1 <0>         0.0000
     12 H4          1.7590   -1.0905    3.7624 H         1 <0>         0.0000
     13 H5         -0.9240    0.4437    1.9778 H         1 <0>         0.0000
@<TRIPOS>BOND
     1    1    2 ar
     2    1    3 ar
     3    2    5 ar
     4    3    6 ar
     5    4    5 ar
     6    4    6 ar
     7    5    7 1
     8    6    8 1
     9    1    9 1
    10    2   10 1
    11    3   11 1
    12    4   12 1
    13    7   13 1
@<TRIPOS>MOLECULE
4-chlorophenol
   13    13     0     0     0
SMALL
NO_CHARGES

@<TRIPOS>ATOM
      1 C1          1.8851   -1.0363   -0.1124 C.ar      1 <0>         0.0000
      2 C2          2.8783   -1.6520    2.0022 C.ar      1 <0>         0.0000
      3 C3          0.8066   -0.4630    0.5610 C.ar      1 <0>         0.0000
      4 C4          1.7997   -1.0786    2.6757 C.ar      1 <0>         0.0000
      5 C5          2.9210   -1.6309    0.6081 C.ar      1 <0>         0.0000
      6 C6          0.7638   -0.4841    1.9551 C.ar      1 <0>         0.0000
      7 O1          3.9732   -2.1909   -0.0488 O.3       1 <0>         0.0000
      8 Cl1        -0.5675    0.2219    2.7861 Cl        1 <0>         0.0000
      9 H1          1.9120   -1.0168   -1.1983 H         1 <0>         0.0000
     10 H2          3.6819   -2.1140    2.5689 H         1 <0>         0.0000
     11 H3          0.0057   -0.0039   -0.0133 H         1 <0>         0.0000
     12 H4          1.7791   -1.1032    3.7623 H         1 <0>         0.0000
     13 H5          3.8591   -2.0976   -1.0081 H         1 <0>         0.0000
@<TRIPOS>BOND
     1    1    3 ar
     2    1    5 ar
     3    2    4 ar
     4    2    5 ar
     5    3    6 ar
     6    4    6 ar
     7    5    7 1
     8    6    8 1
     9    1    9 1
    10    2   10 1
    11    3   11 1
    12    4   12 1
    13    7   13 1
@<TRIPOS>MOLECULE
4-chloro-3-methylphenol
   16    16     0     0     0
SMALL
NO_CHARGES

@<TRIPOS>ATOM
      1 C1          1.8851   -1.0363   -0.1124 C.ar      1 <0>         0.0000
      2 C2          0.8066   -0.4630    0.5610 C.ar      1 <0>         0.0000
      3 C3          2.8783   -1.6520    2.0022 C.ar      1 <0>         0.0000
      4 C4          1.7997   -1.0786    2.6757 C.ar      1 <0>         0.0000
      5 C5          2.9210   -1.6309    0.6081 C.ar      1 <0>         0.0000
      6 C6          0.7638   -0.4841    1.9551 C.ar      1 <0>         0.0000
      7 C7          1.7910   -1.1223    4.1696 C.3       1 <0>         0.0000
      8 O1          3.9730   -2.1906   -0.0496 O.3       1 <0>         0.0000
      9 Cl1        -0.5891    0.2307    2.7535 Cl        1 <0>         0.0000
     10 H1          1.9124   -1.0175   -1.1985 H         1 <0>         0.0000
     11 H2          0.0073   -0.0044   -0.0158 H         1 <0>         0.0000
     12 H3          3.6888   -2.1147    2.5602 H         1 <0>         0.0000
     13 H4          2.2853   -0.2335    4.5774 H         1 <0>         0.0000
     14 H5          0.7662   -1.1626    4.5579 H         1 <0>         0.0000
     15 H6          2.3097   -2.0139    4.5420 H         1 <0>         0.0000
     16 H7          4.6076   -2.5609    0.5845 H         1 <0>         0.0000
@<TRIPOS>BOND
     1    1    2 ar
     2    1    5 ar
     3    2    6 ar
     4    3    4 ar
     5    3    5 ar
     6    4    6 ar
     7    4    7 1
     8    5    8 1
     9    6    9 1
    10    1   10 1
    11    2   11 1
    12    3   12 1
    13    7   13 1
    14    7   14 1
    15    7   15 1
    16    8   16 1
@<TRIPOS>MOLECULE
4-bromophenol
   13    13     0     0     0
SMALL
NO_CHARGES

@<TRIPOS>ATOM
      1 C1          1.8851   -1.0363   -0.1124 C.ar      1 <0>         0.0000
      2 C2          2.8783   -1.6520    2.0022 C.ar      1 <0>         0.0000
      3 C3          0.8066   -0.4630    0.5610 C.ar      1 <0>         0.0000
      4 C4          1.7997   -1.0786    2.6757 C.ar      1 <0>         0.0000
      5 C5          2.9210   -1.6309    0.6081 C.ar      1 <0>         0.0000
      6 C6          0.7638   -0.4841    1.9551 C.ar      1 <0>         0.0000
      7 O1          3.9732   -2.1907   -0.0492 O.3       1 <0>         0.0000
      8 Br1        -0.6964    0.2945    2.8679 Br        1 <0>         0.0000
      9 H1          1.9124   -1.0171   -1.1985 H         1 <0>         0.0000
     10 H2          3.6819   -2.1146    2.5688 H         1 <0>         0.0000
     11 H3          0.0074   -0.0040   -0.0154 H         1 <0>         0.0000
     12 H4          1.7820   -1.1035    3.7621 H         1 <0>         0.0000
     13 H5          4.6076   -2.5609    0.5851 H         1 <0>         0.0000
@<TRIPOS>BOND
     1    1    3 ar
     2    1    5 ar
     3    2    4 ar
     4    2    5 ar
     5    3    6 ar
     6    4    6 ar
     7    5    7 1
     8    6    8 1
     9    1    9 1
    10    2   10 1
    11    3   11 1
    12    4   12 1
    13    7   13 1
@<TRIPOS>MOLECULE
2-iodophenol
   13    13     0     0     0
SMALL
NO_CHARGES

@<TRIPOS>ATOM
      1 C1          1.8851   -1.0363   -0.1124 C.ar      1 <0>         0.0000
      2 C2          0.8066   -0.4630    0.5610 C.ar      1 <0>         0.0000
      3 C3          2.9210   -1.6309    0.6081 C.ar      1 <0>         0.0000
      4 C4          0.7638   -0.4841    1.9551 C.ar      1 <0>         0.0000
      5 C5          2.8783   -1.6520    2.0022 C.ar      1 <0>         0.0000
      6 C6          1.7997   -1.0786    2.6757 C.ar      1 <0>         0.0000
      7 O1          3.9110   -2.2423    2.6687 O.3       1 <0>         0.0000
      8 I1          1.6869   -1.0833    4.7623 I         1 <0>         0.0000
      9 H1          1.9181   -1.0201   -1.1979 H         1 <0>         0.0000
     10 H2         -0.0001   -0.0006   -0.0004 H         1 <0>         0.0000
     11 H3          3.7579   -2.0754    0.0763 H         1 <0>         0.0000
     12 H4         -0.0872   -0.0312    2.4575 H         1 <0>         0.0000
     13 H5          4.5645   -2.5822    2.0381 H         1 <0>         0.0000
@<TRIPOS>BOND
     1    1    2 ar
     2    1    3 ar
     3    2    4 ar
     4    3    5 ar
     5    4    6 ar
     6    5    6 ar
     7    5    7 1
     8    6    8 1
     9    1    9 1
    10    2   10 1
    11    3   11 1
    12    4   12 1
    13    7   13 1
@<TRIPOS>MOLECULE
2-methoxyphenol
   17    17     0     0     0
SMALL
NO_CHARGES

@<TRIPOS>ATOM
      1 C1          1.8851   -1.0363   -0.1124 C.ar      1 <0>         0.0000
      2 C2          0.8066   -0.4630    0.5610 C.ar      1 <0>         0.0000
      3 C3          2.9210   -1.6309    0.6081 C.ar      1 <0>         0.0000
      4 C4          0.7638   -0.4841    1.9551 C.ar      1 <0>         0.0000
      5 C5          2.8783   -1.6520    2.0022 C.ar      1 <0>         0.0000
      6 C6          1.7997   -1.0786    2.6757 C.ar      1 <0>         0.0000
      7 C7          0.6102   -0.4844    4.6474 C.3       1 <0>         0.0000
      8 O1          3.8966   -2.2346    2.6945 O.3       1 <0>         0.0000
      9 O2          1.7470   -1.0918    4.0368 O.3       1 <0>         0.0000
     10 H1          1.9183   -1.0200   -1.1982 H         1 <0>         0.0000
     11 H2          0.0002   -0.0001    0.0001 H         1 <0>         0.0000
     12 H3          3.7584   -2.0759    0.0774 H         1 <0>         0.0000
     13 H4         -0.0785   -0.0342    2.4734 H         1 <0>         0.0000
     14 H5          0.6933   -0.5639    5.7341 H         1 <0>         0.0000
     15 H6         -0.2994   -0.9833    4.3034 H         1 <0>         0.0000
     16 H7          0.5749    0.5699    4.3631 H         1 <0>         0.0000
     17 H8          4.5633   -2.5819    2.0812 H         1 <0>         0.0000
@<TRIPOS>BOND
     1    1    2 ar
     2    1    3 ar
     3    2    4 ar
     4    3    5 ar
     5    4    6 ar
     6    5    6 ar
     7    5    8 1
     8    6    9 1
     9    7    9 1
    10    1   10 1
    11    2   11 1
    12    3   12 1
    13    4   13 1
    14    7   14 1
    15    7   15 1
    16    7   16 1
    17    8   17 1
@<TRIPOS>MOLECULE
3-methoxyphenol
   17    17     0     0     0
SMALL
NO_CHARGES

@<TRIPOS>ATOM
      1 C1          1.8851   -1.0363   -0.1124 C.ar      1 <0>         0.0000
      2 C2          0.8066   -0.4630    0.5610 C.ar      1 <0>         0.0000
      3 C3          2.9210   -1.6309    0.6081 C.ar      1 <0>         0.0000
      4 C4          1.7997   -1.0786    2.6757 C.ar      1 <0>         0.0000
      5 C5          0.7638   -0.4841    1.9551 C.ar      1 <0>         0.0000
      6 C6          2.8783   -1.6520    2.0022 C.ar      1 <0>         0.0000
      7 C7          4.9587   -2.8032    1.9527 C.3       1 <0>         0.0000
      8 O1         -0.2878    0.0771    2.6120 O.3       1 <0>         0.0000
      9 O2          3.8880   -2.2341    2.7048 O.3       1 <0>         0.0000
     10 H1          1.9183   -1.0199   -1.1979 H         1 <0>         0.0000
     11 H2          0.0027   -0.0009   -0.0056 H         1 <0>         0.0000
     12 H3          3.7581   -2.0770    0.0782 H         1 <0>         0.0000
     13 H4          1.7666   -1.0947    3.7621 H         1 <0>         0.0000
     14 H5          5.6958   -3.2336    2.6350 H         1 <0>         0.0000
     15 H6          5.4243   -2.0294    1.3371 H         1 <0>         0.0000
     16 H7          4.5608   -3.5894    1.3068 H         1 <0>         0.0000
     17 H8         -0.1740   -0.0167    3.5712 H         1 <0>         0.0000
@<TRIPOS>BOND
     1    1    2 ar
     2    1    3 ar
     3    2    5 ar
     4    3    6 ar
     5    4    5 ar
     6    4    6 ar
     7    5    8 1
     8    6    9 1
     9    7    9 1
    10    1   10 1
    11    2   11 1
    12    3   12 1
    13    4   13 1
    14    7   14 1
    15    7   15 1
    16    7   16 1
    17    8   17 1
@<TRIPOS>MOLECULE
3-hydroxybenzaldehyde
   15    15     0     0     0
SMALL
NO_CHARGES

@<TRIPOS>ATOM
      1 C1          1.8851   -1.0363   -0.1124 C.ar      1 <0>         0.0000
      2 C2          0.8066   -0.4630    0.5610 C.ar      1 <0>         0.0000
      3 C3          2.9210   -1.6309    0.6081 C.ar      1 <0>         0.0000
      4 C4          1.7997   -1.0786    2.6757 C.ar      1 <0>         0.0000
      5 C5          0.7638   -0.4841    1.9551 C.ar      1 <0>         0.0000
      6 C6          2.8783   -1.6520    2.0022 C.ar      1 <0>         0.0000
      7 C7         -0.3608    0.1133    2.6578 C.2       1 <0>         0.0000
      8 O1         -1.3068    0.6540    2.0785 O.2       1 <0>         0.0000
      9 O2          3.8888   -2.2321    2.7055 O.3       1 <0>         0.0000
     10 H1          1.9183   -1.0198   -1.1978 H         1 <0>         0.0000
     11 H2          0.0042   -0.0033   -0.0101 H         1 <0>         0.0000
     12 H3          3.7585   -2.0758    0.0778 H         1 <0>         0.0000
     13 H4          1.7710   -1.0984    3.7628 H         1 <0>         0.0000
     14 H5         -0.3500    0.0718    3.7687 H         1 <0>         0.0000
     15 H6          4.5612   -2.5837    2.1004 H         1 <0>         0.0000
@<TRIPOS>BOND
     1    1    2 ar
     2    1    3 ar
     3    2    5 ar
     4    3    6 ar
     5    4    5 ar
     6    4    6 ar
     7    5    7 1
     8    6    9 1
     9    7    8 2
    10    1   10 1
    11    2   11 1
    12    3   12 1
    13    4   13 1
    14    7   14 1
    15    9   15 1
@<TRIPOS>MOLECULE
4-hydroxybenzaldehyde
   15    15     0     0     0
SMALL
NO_CHARGES

@<TRIPOS>ATOM
      1 C1          1.8851   -1.0363   -0.1124 C.ar      1 <0>         0.0000
      2 C2          2.8783   -1.6520    2.0022 C.ar      1 <0>         0.0000
      3 C3          0.8066   -0.4630    0.5610 C.ar      1 <0>         0.0000
      4 C4          1.7997   -1.0786    2.6757 C.ar      1 <0>         0.0000
      5 C5          2.9210   -1.6309    0.6081 C.ar      1 <0>         0.0000
      6 C6          0.7638   -0.4841    1.9551 C.ar      1 <0>         0.0000
      7 C7          4.0457   -2.2285   -0.0938 C.2       1 <0>         0.0000
      8 O1          4.9919   -2.7686    0.4860 O.2       1 <0>         0.0000
      9 O2         -0.2886    0.0750    2.6125 O.3       1 <0>         0.0000
     10 H1          1.9077   -1.0136   -1.1990 H         1 <0>         0.0000
     11 H2          3.6806   -2.1126    2.5729 H         1 <0>         0.0000
     12 H3          0.0026   -0.0015   -0.0059 H         1 <0>         0.0000
     13 H4          1.7717   -1.0984    3.7617 H         1 <0>         0.0000
     14 H5          4.0357   -2.1871   -1.2048 H         1 <0>         0.0000
     15 H6         -0.9231    0.4452    1.9782 H         1 <0>         0.0000
@<TRIPOS>BOND
     1    1    3 ar
     2    1    5 ar
     3    2    4 ar
     4    2    5 ar
     5    3    6 ar
     6    4    6 ar
     7    5    7 1
     8    6    9 1
     9    7    8 2
    10    1   10 1
    11    2   11 1
    12    3   12 1
    13    4   13 1
    14    7   14 1
    15    9   15 1
@<TRIPOS>MOLECULE
3-cyanophenol
   14    14     0     0     0
SMALL
NO_CHARGES

@<TRIPOS>ATOM
      1 C1         -0.3411    0.1026    2.6453 C.1       1 <0>         0.0000
      2 C2          1.8851   -1.0363   -0.1124 C.ar      1 <0>         0.0000
      3 C3          0.8066   -0.4630    0.5610 C.ar      1 <0>         0.0000
      4 C4          2.9210   -1.6309    0.6081 C.ar      1 <0>         0.0000
      5 C5          1.7997   -1.0786    2.6757 C.ar      1 <0>         0.0000
      6 C6          0.7638   -0.4841    1.9551 C.ar      1 <0>         0.0000
      7 C7          2.8783   -1.6520    2.0022 C.ar      1 <0>         0.0000
      8 N1         -1.2386    0.5790    3.2059 N.1       1 <0>         0.0000
      9 O1          3.8895   -2.2324    2.7044 O.3       1 <0>         0.0000
     10 H1          1.9188   -1.0195   -1.1979 H         1 <0>         0.0000
     11 H2          0.0067   -0.0034   -0.0149 H         1 <0>         0.0000
     12 H3          3.7586   -2.0761    0.0780 H         1 <0>         0.0000
     13 H4          1.7752   -1.0989    3.7633 H         1 <0>         0.0000
     14 H5          3.7174   -2.1680    3.6573 H         1 <0>         0.0000
@<TRIPOS>BOND
     1    1    6 1
     2    1    8 3
     3    2    3 ar
     4    2    4 ar
     5    3    6 ar
     6    4    7 ar
     7    5    6 ar
     8    5    7 ar
     9    7    9 1
    10    2   10 1
    11    3   11 1
    12    4   12 1
    13    5   13 1
    14    9   14 1
@<TRIPOS>MOLECULE
4-cyanophenol
   14    14     0     0     0
SMALL
NO_CHARGES

@<TRIPOS>ATOM
      1 C1          4.0261   -2.2187   -0.0810 C.1       1 <0>         0.0000
      2 C2          1.8851   -1.0363   -0.1124 C.ar      1 <0>         0.0000
      3 C3          2.8783   -1.6520    2.0022 C.ar      1 <0>         0.0000
      4 C4          0.8066   -0.4630    0.5610 C.ar      1 <0>         0.0000
      5 C5          1.7997   -1.0786    2.6757 C.ar      1 <0>         0.0000
      6 C6          2.9210   -1.6309    0.6081 C.ar      1 <0>         0.0000
      7 C7          0.7638   -0.4841    1.9551 C.ar      1 <0>         0.0000
      8 N1          4.9236   -2.6961   -0.6408 N.1       1 <0>         0.0000
      9 O1         -0.2890    0.0749    2.6120 O.3       1 <0>         0.0000
     10 H1          1.9043   -1.0123   -1.1994 H         1 <0>         0.0000
     11 H2          3.6781   -2.1116    2.5780 H         1 <0>         0.0000
     12 H3          0.0022   -0.0017   -0.0055 H         1 <0>         0.0000
     13 H4          1.7723   -1.0988    3.7618 H         1 <0>         0.0000
     14 H5         -0.1749   -0.0187    3.5713 H         1 <0>         0.0000
@<TRIPOS>BOND
     1    1    6 1
     2    1    8 3
     3    2    4 ar
     4    2    6 ar
     5    3    5 ar
     6    3    6 ar
     7    4    7 ar
     8    5    7 ar
     9    7    9 1
    10    2   10 1
    11    3   11 1
    12    4   12 1
    13    5   13 1
    14    9   14 1
@<TRIPOS>MOLECULE
2-nitrophenol
   15    15     0     0     0
SMALL
NO_CHARGES

@<TRIPOS>ATOM
      1 C1          1.8851   -1.0363   -0.1124 C.ar      1 <0>         0.0000
      2 C2          0.8066   -0.4630    0.5610 C.ar      1 <0>         0.0000
      3 C3          2.9210   -1.6309    0.6081 C.ar      1 <0>         0.0000
      4 C4          0.7638   -0.4841    1.9551 C.ar      1 <0>         0.0000
      5 C5          2.8783   -1.6520    2.0022 C.ar      1 <0>         0.0000
      6 C6          1.7997   -1.0786    2.6757 C.ar      1 <0>         0.0000
      7 N1          3.9428   -2.2624    2.7208 N.pl3     1 <0>         0.0000
      8 O1          4.9263   -1.5618    3.0580 O.3       1 <0>         0.0000
      9 O2          3.8664   -3.4832    2.9960 O.2       1 <0>         0.0000
     10 O3          1.7362   -1.0851    4.0376 O.3       1 <0>         0.0000
     11 H1          1.9186   -1.0197   -1.1980 H         1 <0>         0.0000
     12 H2         -0.0001   -0.0002   -0.0000 H         1 <0>         0.0000
     13 H3          3.7554   -2.0740    0.0698 H         1 <0>         0.0000
     14 H4         -0.0798   -0.0357    2.4735 H         1 <0>         0.0000
     15 H5          0.9249   -0.6459    4.3362 H         1 <0>         0.0000
@<TRIPOS>BOND
     1    1    2 ar
     2    1    3 ar
     3    2    4 ar
     4    3    5 ar
     5    4    6 ar
     6    5    6 ar
     7    5    7 1
     8    6   10 1
     9    7    8 1
    10    7    9 2
    11    1   11 1
    12    2   12 1
    13    3   13 1
    14    4   14 1
    15   10   15 1
@<TRIPOS>MOLECULE
3-nitrophenol
   15    15     0     0     0
SMALL
NO_CHARGES

@<TRIPOS>ATOM
      1 C1          1.8851   -1.0363   -0.1124 C.ar      1 <0>         0.0000
      2 C2          0.8066   -0.4630    0.5610 C.ar      1 <0>         0.0000
      3 C3          2.9210   -1.6309    0.6081 C.ar      1 <0>         0.0000
      4 C4          1.7997   -1.0786    2.6757 C.ar      1 <0>         0.0000
      5 C5          0.7638   -0.4841    1.9551 C.ar      1 <0>         0.0000
      6 C6          2.8783   -1.6520    2.0022 C.ar      1 <0>         0.0000
      7 N1         -0.3346    0.0991    2.6406 N.pl3     1 <0>         0.0000
      8 O1         -1.2561    0.6281    1.9732 O.3       1 <0>         0.0000
      9 O2         -0.3536    0.0692    3.8948 O.2       1 <0>         0.0000
     10 O3          3.8893   -2.2323    2.7047 O.3       1 <0>         0.0000
     11 H1          1.9188   -1.0194   -1.1979 H         1 <0>         0.0000
     12 H2          0.0055   -0.0029   -0.0128 H         1 <0>         0.0000
     13 H3          3.7585   -2.0761    0.0781 H         1 <0>         0.0000
     14 H4          1.7735   -1.0980    3.7629 H         1 <0>         0.0000
     15 H5          3.7171   -2.1678    3.6576 H         1 <0>         0.0000
@<TRIPOS>BOND
     1    1    2 ar
     2    1    3 ar
     3    2    5 ar
     4    3    6 ar
     5    4    5 ar
     6    4    6 ar
     7    5    7 1
     8    6   10 1
     9    7    8 1
    10    7    9 2
    11    1   11 1
    12    2   12 1
    13    3   13 1
    14    4   14 1
    15   10   15 1
@<TRIPOS>MOLECULE
4-nitrophenol
   15    15     0     0     0
SMALL
NO_CHARGES

@<TRIPOS>ATOM
      1 C1          1.8851   -1.0363   -0.1124 C.ar      1 <0>         0.0000
      2 C2          2.8783   -1.6520    2.0022 C.ar      1 <0>         0.0000
      3 C3          0.8066   -0.4630    0.5610 C.ar      1 <0>         0.0000
      4 C4          1.7997   -1.0786    2.6757 C.ar      1 <0>         0.0000
      5 C5          2.9210   -1.6309    0.6081 C.ar      1 <0>         0.0000
      6 C6          0.7638   -0.4841    1.9551 C.ar      1 <0>         0.0000
      7 N1          4.0190   -2.2148   -0.0772 N.pl3     1 <0>         0.0000
      8 O1          4.0382   -2.1852   -1.3314 O.3       1 <0>         0.0000
      9 O2          4.9403   -2.7442    0.5902 O.2       1 <0>         0.0000
     10 O3         -0.2886    0.0754    2.6122 O.3       1 <0>         0.0000
     11 H1          1.9063   -1.0127   -1.1992 H         1 <0>         0.0000
     12 H2          3.6786   -2.1125    2.5763 H         1 <0>         0.0000
     13 H3          0.0028   -0.0010   -0.0058 H         1 <0>         0.0000
     14 H4          1.7719   -1.0986    3.7617 H         1 <0>         0.0000
     15 H5         -0.1745   -0.0183    3.5714 H         1 <0>         0.0000
@<TRIPOS>BOND
     1    1    3 ar
     2    1    5 ar
     3    2    4 ar
     4    2    5 ar
     5    3    6 ar
     6    4    6 ar
     7    5    7 1
     8    6   10 1
     9    7    8 1
    10    7    9 2
    11    1   11 1
    12    2   12 1
    13    3   13 1
    14    4   14 1
    15   10   15 1
@<TRIPOS>MOLECULE
1-napthol
   19    20     0     0     0
SMALL
NO_CHARGES

@<TRIPOS>ATOM
      1 C1         -0.4966   -2.0341    0.4940 C.ar      1 <0>         0.0000
      2 C2          0.3500   -1.0275    0.0392 C.ar      1 <0>         0.0000
      3 C3          3.0228   -5.3167   -0.2210 C.ar      1 <0>         0.0000
      4 C4         -0.0479   -3.3542    0.5448 C.ar      1 <0>         0.0000
      5 C5          1.6484   -1.3369   -0.3665 C.ar      1 <0>         0.0000
      6 C6          1.7243   -5.0072    0.1848 C.ar      1 <0>         0.0000
      7 C7          3.8693   -4.3100   -0.6758 C.ar      1 <0>         0.0000
      8 C8          1.2560   -3.6839    0.1403 C.ar      1 <0>         0.0000
      9 C9          2.1168   -2.6602   -0.3222 C.ar      1 <0>         0.0000
     10 C10         3.4207   -2.9899   -0.7267 C.ar      1 <0>         0.0000
     11 O1          4.2871   -2.0364   -1.1801 O.3       1 <0>         0.0000
     12 H1         -1.5073   -1.7925    0.8098 H         1 <0>         0.0000
     13 H2         -0.0002   -0.0000    0.0000 H         1 <0>         0.0000
     14 H3          3.3726   -6.3442   -0.1817 H         1 <0>         0.0000
     15 H4         -0.7269   -4.1249    0.9038 H         1 <0>         0.0000
     16 H5          2.2840   -0.5265   -0.7166 H         1 <0>         0.0000
     17 H6          1.0800   -5.8101    0.5368 H         1 <0>         0.0000
     18 H7          4.8792   -4.5596   -0.9901 H         1 <0>         0.0000
     19 H8          5.1352   -2.4429   -1.4130 H         1 <0>         0.0000
@<TRIPOS>BOND
     1    1    2 ar
     2    1    4 ar
     3    2    5 ar
     4    3    6 ar
     5    3    7 ar
     6    4    8 ar
     7    5    9 ar
     8    6    8 ar
     9    7   10 ar
    10    8    9 ar
    11    9   10 ar
    12   10   11 1
    13    1   12 1
    14    2   13 1
    15    3   14 1
    16    4   15 1
    17    5   16 1
    18    6   17 1
    19    7   18 1
    20   11   19 1
@<TRIPOS>MOLECULE
2-napthol
   19    20     0     0     0
SMALL
NO_CHARGES

@<TRIPOS>ATOM
      1 C1         -0.4966   -2.0341    0.4940 C.ar      1 <0>         0.0000
      2 C2          0.3500   -1.0275    0.0392 C.ar      1 <0>         0.0000
      3 C3         -0.0479   -3.3542    0.5448 C.ar      1 <0>         0.0000
      4 C4          1.6484   -1.3369   -0.3665 C.ar      1 <0>         0.0000
      5 C5          1.7243   -5.0072    0.1848 C.ar      1 <0>         0.0000
      6 C6          3.0228   -5.3167   -0.2210 C.ar      1 <0>         0.0000
      7 C7          3.4207   -2.9899   -0.7267 C.ar      1 <0>         0.0000
      8 C8          1.2560   -3.6839    0.1403 C.ar      1 <0>         0.0000
      9 C9          2.1168   -2.6602   -0.3222 C.ar      1 <0>         0.0000
     10 C10         3.8693   -4.3100   -0.6758 C.ar      1 <0>         0.0000
     11 O1          5.1358   -4.6136   -1.0711 O.3       1 <0>         0.0000
     12 H1         -1.5074   -1.7925    0.8090 H         1 <0>         0.0000
     13 H2          0.0004    0.0003    0.0001 H         1 <0>         0.0000
     14 H3         -0.7263   -4.1256    0.9032 H         1 <0>         0.0000
     15 H4          2.2925   -0.5339   -0.7191 H         1 <0>         0.0000
     16 H5          1.0796   -5.8103    0.5361 H         1 <0>         0.0000
     17 H6          3.3668   -6.3466   -0.1799 H         1 <0>         0.0000
     18 H7          4.0955   -2.2144   -1.0847 H         1 <0>         0.0000
     19 H8          5.5995   -3.8114   -1.3597 H         1 <0>         0.0000
@<TRIPOS>BOND
     1    1    2 ar
     2    1    3 ar
     3    2    4 ar
     4    3    8 ar
     5    4    9 ar
     6    5    6 ar
     7    5    8 ar
     8    6   10 ar
     9    7    9 ar
    10    7   10 ar
    11    8    9 ar
    12   10   11 1
    13    1   12 1
    14    2   13 1
    15    3   14 1
    16    4   15 1
    17    5   16 1
    18    6   17 1
    19    7   18 1
    20   11   19 1
@<TRIPOS>MOLECULE
benzylalcohol
   16    16     0     0     0
SMALL
NO_CHARGES

@<TRIPOS>ATOM
      1 C1          1.8851   -1.0363   -0.1124 C.ar      1 <0>         0.0000
      2 C2          0.8066   -0.4630    0.5610 C.ar      1 <0>         0.0000
      3 C3          2.9210   -1.6309    0.6081 C.ar      1 <0>         0.0000
      4 C4          0.7638   -0.4841    1.9551 C.ar      1 <0>         0.0000
      5 C5          2.8783   -1.6520    2.0022 C.ar      1 <0>         0.0000
      6 C6          1.7997   -1.0786    2.6757 C.ar      1 <0>         0.0000
      7 C7          1.7548   -1.1014    4.1663 C.3       1 <0>         0.0000
      8 O1          2.3882    0.0658    4.6758 O.3       1 <0>         0.0000
      9 H1          1.9176   -1.0210   -1.1980 H         1 <0>         0.0000
     10 H2         -0.0006   -0.0010    0.0001 H         1 <0>         0.0000
     11 H3          3.7604   -2.0783    0.0841 H         1 <0>         0.0000
     12 H4         -0.0804   -0.0348    2.4713 H         1 <0>         0.0000
     13 H5          3.6899   -2.1173    2.5553 H         1 <0>         0.0000
     14 H6          0.7205   -1.1290    4.5357 H         1 <0>         0.0000
     15 H7          2.2704   -1.9856    4.5653 H         1 <0>         0.0000
     16 H8          2.3370    0.0112    5.6435 H         1 <0>         0.0000
@<TRIPOS>BOND
     1    1    2 ar
     2    1    3 ar
     3    2    4 ar
     4    3    5 ar
     5    4    6 ar
     6    5    6 ar
     7    6    7 1
     8    7    8 1
     9    1    9 1
    10    2   10 1
    11    3   11 1
    12    4   12 1
    13    5   13 1
    14    7   14 1
    15    7   15 1
    16    8   16 1
@<TRIPOS>MOLECULE
benzylethanol
   19    19     0     0     0
SMALL
NO_CHARGES

@<TRIPOS>ATOM
      1 C1          1.8851   -1.0363   -0.1124 C.ar      1 <0>         0.0000
      2 C2          0.8066   -0.4630    0.5610 C.ar      1 <0>         0.0000
      3 C3          2.9210   -1.6309    0.6081 C.ar      1 <0>         0.0000
      4 C4          0.7638   -0.4841    1.9551 C.ar      1 <0>         0.0000
      5 C5          2.8783   -1.6520    2.0022 C.ar      1 <0>         0.0000
      6 C6          1.7997   -1.0786    2.6757 C.ar      1 <0>         0.0000
      7 C7          1.7548   -1.1014    4.1663 C.3       1 <0>         0.0000
      8 C8          2.4156    0.1206    4.8075 C.3       1 <0>         0.0000
      9 O1          1.7305    1.3000    4.4057 O.3       1 <0>         0.0000
     10 H1          1.9176   -1.0210   -1.1980 H         1 <0>         0.0000
     11 H2         -0.0006   -0.0010    0.0001 H         1 <0>         0.0000
     12 H3          3.7604   -2.0783    0.0841 H         1 <0>         0.0000
     13 H4         -0.0804   -0.0348    2.4713 H         1 <0>         0.0000
     14 H5          3.6899   -2.1173    2.5553 H         1 <0>         0.0000
     15 H6          0.7115   -1.1700    4.5119 H         1 <0>         0.0000
     16 H7          2.2598   -2.0066    4.5369 H         1 <0>         0.0000
     17 H8          2.3545    0.0528    5.8985 H         1 <0>         0.0000
     18 H9          3.4682    0.2079    4.5186 H         1 <0>         0.0000
     19 H10         2.1819    2.0451    4.8340 H         1 <0>         0.0000
@<TRIPOS>BOND
     1    1    2 ar
     2    1    3 ar
     3    2    4 ar
     4    3    5 ar
     5    4    6 ar
     6    5    6 ar
     7    6    7 1
     8    7    8 1
     9    8    9 1
    10    1   10 1
    11    2   11 1
    12    3   12 1
    13    4   13 1
    14    5   14 1
    15    7   15 1
    16    7   16 1
    17    8   17 1
    18    8   18 1
    19    9   19 1
@<TRIPOS>MOLECULE
3-phenylpropanol
   22    22     0     0     0
SMALL
NO_CHARGES

@<TRIPOS>ATOM
      1 C1          1.8851   -1.0363   -0.1124 C.ar      1 <0>         0.0000
      2 C2          0.8066   -0.4630    0.5610 C.ar      1 <0>         0.0000
      3 C3          2.9210   -1.6309    0.6081 C.ar      1 <0>         0.0000
      4 C4          0.7638   -0.4841    1.9551 C.ar      1 <0>         0.0000
      5 C5          2.8783   -1.6520    2.0022 C.ar      1 <0>         0.0000
      6 C6          1.7997   -1.0786    2.6757 C.ar      1 <0>         0.0000
      7 C7          1.7548   -1.1014    4.1663 C.3       1 <0>         0.0000
      8 C8          2.4239    0.1347    4.7831 C.3       1 <0>         0.0000
      9 C9          2.4230    0.0892    6.3048 C.3       1 <0>         0.0000
     10 O1          3.0424    1.2681    6.8000 O.3       1 <0>         0.0000
     11 H1          1.9176   -1.0210   -1.1980 H         1 <0>         0.0000
     12 H2         -0.0006   -0.0010    0.0001 H         1 <0>         0.0000
     13 H3          3.7604   -2.0783    0.0841 H         1 <0>         0.0000
     14 H4         -0.0804   -0.0348    2.4713 H         1 <0>         0.0000
     15 H5          3.6899   -2.1173    2.5553 H         1 <0>         0.0000
     16 H6          2.2475   -2.0089    4.5547 H         1 <0>         0.0000
     17 H7          0.7117   -1.1607    4.5211 H         1 <0>         0.0000
     18 H8          1.9166    1.0486    4.4473 H         1 <0>         0.0000
     19 H9          3.4573    0.2261    4.4234 H         1 <0>         0.0000
     20 H10         1.4007    0.0436    6.6937 H         1 <0>         0.0000
     21 H11         2.9828   -0.7779    6.6698 H         1 <0>         0.0000
     22 H12         3.0257    1.2081    7.7690 H         1 <0>         0.0000
@<TRIPOS>BOND
     1    1    2 ar
     2    1    3 ar
     3    2    4 ar
     4    3    5 ar
     5    4    6 ar
     6    5    6 ar
     7    6    7 1
     8    7    8 1
     9    8    9 1
    10    9   10 1
    11    1   11 1
    12    2   12 1
    13    3   13 1
    14    4   14 1
    15    5   15 1
    16    7   16 1
    17    7   17 1
    18    8   18 1
    19    8   19 1
    20    9   20 1
    21    9   21 1
    22   10   22 1
@<TRIPOS>MOLECULE
thiophenol
   13    13     0     0     0
SMALL
NO_CHARGES

@<TRIPOS>ATOM
      1 C1          1.8851   -1.0363   -0.1124 C.ar      1 <0>         0.0000
      2 C2          0.8066   -0.4630    0.5610 C.ar      1 <0>         0.0000
      3 C3          2.9210   -1.6309    0.6081 C.ar      1 <0>         0.0000
      4 C4          0.7638   -0.4841    1.9551 C.ar      1 <0>         0.0000
      5 C5          2.8783   -1.6520    2.0022 C.ar      1 <0>         0.0000
      6 C6          1.7997   -1.0786    2.6757 C.ar      1 <0>         0.0000
      7 S1          1.7452   -1.1049    4.4568 S.3       1 <0>         0.0000
      8 H1          1.9179   -1.0195   -1.1979 H         1 <0>         0.0000
      9 H2          0.0000    0.0003    0.0002 H         1 <0>         0.0000
     10 H3          3.7604   -2.0771    0.0830 H         1 <0>         0.0000
     11 H4         -0.0850   -0.0319    2.4622 H         1 <0>         0.0000
     12 H5          3.6951   -2.1197    2.5465 H         1 <0>         0.0000
     13 H6          2.9045   -1.7509    4.6537 H         1 <0>         0.0000
@<TRIPOS>BOND
     1    1    2 ar
     2    1    3 ar
     3    2    4 ar
     4    3    5 ar
     5    4    6 ar
     6    5    6 ar
     7    6    7 1
     8    1    8 1
     9    2    9 1
    10    3   10 1
    11    4   11 1
    12    5   12 1
    13    7   13 1
@<TRIPOS>MOLECULE
thioanisol
   16    16     0     0     0
SMALL
NO_CHARGES

@<TRIPOS>ATOM
      1 C1          1.8851   -1.0363   -0.1124 C.ar      1 <0>         0.0000
      2 C2          0.8066   -0.4630    0.5610 C.ar      1 <0>         0.0000
      3 C3          2.9210   -1.6309    0.6081 C.ar      1 <0>         0.0000
      4 C4          0.7638   -0.4841    1.9551 C.ar      1 <0>         0.0000
      5 C5          2.8783   -1.6520    2.0022 C.ar      1 <0>         0.0000
      6 C6          1.7997   -1.0786    2.6757 C.ar      1 <0>         0.0000
      7 C7          1.7018    0.6709    4.7834 C.3       1 <0>         0.0000
      8 S1          1.7452   -1.1049    4.4568 S.3       1 <0>         0.0000
      9 H1          1.9179   -1.0195   -1.1979 H         1 <0>         0.0000
     10 H2          0.0000    0.0003    0.0002 H         1 <0>         0.0000
     11 H3          3.7604   -2.0771    0.0830 H         1 <0>         0.0000
     12 H4         -0.0850   -0.0319    2.4622 H         1 <0>         0.0000
     13 H5          3.6951   -2.1197    2.5465 H         1 <0>         0.0000
     14 H6          1.6652    0.8500    5.8608 H         1 <0>         0.0000
     15 H7          0.8166    1.1122    4.3185 H         1 <0>         0.0000
     16 H8          2.5958    1.1459    4.3723 H         1 <0>         0.0000
@<TRIPOS>BOND
     1    1    2 ar
     2    1    3 ar
     3    2    4 ar
     4    3    5 ar
     5    4    6 ar
     6    5    6 ar
     7    6    8 1
     8    7    8 1
     9    1    9 1
    10    2   10 1
    11    3   11 1
    12    4   12 1
    13    5   13 1
    14    7   14 1
    15    7   15 1
    16    7   16 1
@<TRIPOS>MOLECULE
pyridine
   11    11     0     0     0
SMALL
NO_CHARGES

@<TRIPOS>ATOM
      1 C1          1.3879   -0.0684    1.6522 C.ar      1 <0>         0.0000
      2 C2          0.2265   -0.4197    0.9733 C.ar      1 <0>         0.0000
      3 C3          1.6520   -0.6227    2.8997 C.ar      1 <0>         0.0000
      4 C4         -0.6317   -1.3224    1.5803 C.ar      1 <0>         0.0000
      5 C5          0.7299   -1.5161    3.4206 C.ar      1 <0>         0.0000
      6 N1         -0.4092   -1.8816    2.7908 N.ar      1 <0>         0.0000
      7 H1          2.0856    0.6366    1.2102 H         1 <0>         0.0000
      8 H2          0.0003   -0.0005   -0.0002 H         1 <0>         0.0000
      9 H3          2.5508   -0.3630    3.4473 H         1 <0>         0.0000
     10 H4         -1.5509   -1.6283    1.0918 H         1 <0>         0.0000
     11 H5          0.8883   -1.9761    4.3905 H         1 <0>         0.0000
@<TRIPOS>BOND
     1    1    2 ar
     2    1    3 ar
     3    2    4 ar
     4    3    5 ar
     5    4    6 ar
     6    5    6 ar
     7    1    7 1
     8    2    8 1
     9    3    9 1
    10    4   10 1
    11    5   11 1
@<TRIPOS>MOLECULE
2-methylpyridine
   14    14     0     0     0
SMALL
NO_CHARGES

@<TRIPOS>ATOM
      1 C1          1.3879   -0.0684    1.6522 C.ar      1 <0>         0.0000
      2 C2          0.2265   -0.4197    0.9733 C.ar      1 <0>         0.0000
      3 C3          1.6520   -0.6227    2.8997 C.ar      1 <0>         0.0000
      4 C4         -0.6317   -1.3224    1.5803 C.ar      1 <0>         0.0000
      5 C5          0.7299   -1.5161    3.4206 C.ar      1 <0>         0.0000
      6 C6          0.9810   -2.1301    4.7574 C.3       1 <0>         0.0000
      7 N1         -0.4092   -1.8816    2.7908 N.ar      1 <0>         0.0000
      8 H1          2.0859    0.6359    1.2097 H         1 <0>         0.0000
      9 H2          0.0002   -0.0003   -0.0003 H         1 <0>         0.0000
     10 H3          2.5545   -0.3569    3.4396 H         1 <0>         0.0000
     11 H4         -1.5509   -1.6291    1.0922 H         1 <0>         0.0000
     12 H5          0.5463   -1.5091    5.5497 H         1 <0>         0.0000
     13 H6          0.5436   -3.1345    4.8221 H         1 <0>         0.0000
     14 H7          2.0562   -2.2383    4.9495 H         1 <0>         0.0000
@<TRIPOS>BOND
     1    1    2 ar
     2    1    3 ar
     3    2    4 ar
     4    3    5 ar
     5    4    7 ar
     6    5    6 1
     7    5    7 ar
     8    1    8 1
     9    2    9 1
    10    3   10 1
    11    4   11 1
    12    6   12 1
    13    6   13 1
    14    6   14 1
@<TRIPOS>MOLECULE
3-methylpyridine
   14    14     0     0     0
SMALL
NO_CHARGES

@<TRIPOS>ATOM
      1 C1          0.2265   -0.4197    0.9733 C.ar      1 <0>         0.0000
      2 C2          1.3879   -0.0684    1.6522 C.ar      1 <0>         0.0000
      3 C3         -0.6317   -1.3224    1.5803 C.ar      1 <0>         0.0000
      4 C4          0.7299   -1.5161    3.4206 C.ar      1 <0>         0.0000
      5 C5          1.6520   -0.6227    2.8997 C.ar      1 <0>         0.0000
      6 C6          2.8852   -0.2665    3.6509 C.3       1 <0>         0.0000
      7 N1         -0.4092   -1.8816    2.7908 N.ar      1 <0>         0.0000
      8 H1         -0.0000   -0.0001   -0.0002 H         1 <0>         0.0000
      9 H2          2.0808    0.6373    1.2020 H         1 <0>         0.0000
     10 H3         -1.5507   -1.6289    1.0916 H         1 <0>         0.0000
     11 H4          0.8820   -1.9806    4.3900 H         1 <0>         0.0000
     12 H5          2.7060    0.6035    4.2970 H         1 <0>         0.0000
     13 H6          3.2272   -1.0993    4.2816 H         1 <0>         0.0000
     14 H7          3.7151   -0.0258    2.9713 H         1 <0>         0.0000
@<TRIPOS>BOND
     1    1    2 ar
     2    1    3 ar
     3    2    5 ar
     4    3    7 ar
     5    4    5 ar
     6    4    7 ar
     7    5    6 1
     8    1    8 1
     9    2    9 1
    10    3   10 1
    11    4   11 1
    12    6   12 1
    13    6   13 1
    14    6   14 1
@<TRIPOS>MOLECULE
4-methylpyridine
   14    14     0     0     0
SMALL
NO_CHARGES

@<TRIPOS>ATOM
      1 C1          0.2265   -0.4197    0.9733 C.ar      1 <0>         0.0000
      2 C2          1.6520   -0.6227    2.8997 C.ar      1 <0>         0.0000
      3 C3         -0.6317   -1.3224    1.5803 C.ar      1 <0>         0.0000
      4 C4          0.7299   -1.5161    3.4206 C.ar      1 <0>         0.0000
      5 C5          1.3879   -0.0684    1.6522 C.ar      1 <0>         0.0000
      6 C6          2.3469    0.8982    1.0445 C.3       1 <0>         0.0000
      7 N1         -0.4092   -1.8816    2.7908 N.ar      1 <0>         0.0000
      8 H1         -0.0080   -0.0059   -0.0017 H         1 <0>         0.0000
      9 H2          2.5490   -0.3683    3.4537 H         1 <0>         0.0000
     10 H3         -1.5505   -1.6300    1.0917 H         1 <0>         0.0000
     11 H4          0.8895   -1.9761    4.3902 H         1 <0>         0.0000
     12 H5          2.0940    1.9241    1.3393 H         1 <0>         0.0000
     13 H6          3.3774    0.6897    1.3604 H         1 <0>         0.0000
     14 H7          2.3329    0.8380   -0.0518 H         1 <0>         0.0000
@<TRIPOS>BOND
     1    1    3 ar
     2    1    5 ar
     3    2    4 ar
     4    2    5 ar
     5    3    7 ar
     6    4    7 ar
     7    5    6 1
     8    1    8 1
     9    2    9 1
    10    3   10 1
    11    4   11 1
    12    6   12 1
    13    6   13 1
    14    6   14 1
@<TRIPOS>MOLECULE
2,3-dimethylpyridine
   17    17     0     0     0
SMALL
NO_CHARGES

@<TRIPOS>ATOM
      1 C1          0.2265   -0.4197    0.9733 C.ar      1 <0>         0.0000
      2 C2          1.3879   -0.0684    1.6522 C.ar      1 <0>         0.0000
      3 C3         -0.6317   -1.3224    1.5803 C.ar      1 <0>         0.0000
      4 C4          1.6520   -0.6227    2.8997 C.ar      1 <0>         0.0000
      5 C5          0.7299   -1.5161    3.4206 C.ar      1 <0>         0.0000
      6 C6          2.8944   -0.2501    3.6321 C.3       1 <0>         0.0000
      7 C7          0.9623   -2.1430    4.7564 C.3       1 <0>         0.0000
      8 N1         -0.4092   -1.8816    2.7908 N.ar      1 <0>         0.0000
      9 H1         -0.0016   -0.0005    0.0001 H         1 <0>         0.0000
     10 H2          2.0800    0.6378    1.2016 H         1 <0>         0.0000
     11 H3         -1.5508   -1.6293    1.0922 H         1 <0>         0.0000
     12 H4          2.7154    0.6235    4.2719 H         1 <0>         0.0000
     13 H5          3.2494   -1.0754    4.2641 H         1 <0>         0.0000
     14 H6          3.7113   -0.0097    2.9380 H         1 <0>         0.0000
     15 H7          0.5230   -1.5246    5.5476 H         1 <0>         0.0000
     16 H8          0.5169   -3.1441    4.8070 H         1 <0>         0.0000
     17 H9          2.0343   -2.2597    4.9580 H         1 <0>         0.0000
@<TRIPOS>BOND
     1    1    2 ar
     2    1    3 ar
     3    2    4 ar
     4    3    8 ar
     5    4    5 ar
     6    4    6 1
     7    5    7 1
     8    5    8 ar
     9    1    9 1
    10    2   10 1
    11    3   11 1
    12    6   12 1
    13    6   13 1
    14    6   14 1
    15    7   15 1
    16    7   16 1
    17    7   17 1
@<TRIPOS>MOLECULE
2,4-dimethylpyridine
   17    17     0     0     0
SMALL
NO_CHARGES

@<TRIPOS>ATOM
      1 C1          0.2265   -0.4197    0.9733 C.ar      1 <0>         0.0000
      2 C2          1.6520   -0.6227    2.8997 C.ar      1 <0>         0.0000
      3 C3         -0.6317   -1.3224    1.5803 C.ar      1 <0>         0.0000
      4 C4          1.3879   -0.0684    1.6522 C.ar      1 <0>         0.0000
      5 C5          0.7299   -1.5161    3.4206 C.ar      1 <0>         0.0000
      6 C6          2.3462    0.8984    1.0438 C.3       1 <0>         0.0000
      7 C7          0.9808   -2.1305    4.7573 C.3       1 <0>         0.0000
      8 N1         -0.4092   -1.8816    2.7908 N.ar      1 <0>         0.0000
      9 H1         -0.0084   -0.0046   -0.0009 H         1 <0>         0.0000
     10 H2          2.5523   -0.3625    3.4473 H         1 <0>         0.0000
     11 H3         -1.5512   -1.6288    1.0924 H         1 <0>         0.0000
     12 H4          2.0931    1.9243    1.3386 H         1 <0>         0.0000
     13 H5          3.3770    0.6904    1.3593 H         1 <0>         0.0000
     14 H6          2.3316    0.8381   -0.0524 H         1 <0>         0.0000
     15 H7          0.5462   -1.5095    5.5497 H         1 <0>         0.0000
     16 H8          0.5432   -3.1348    4.8217 H         1 <0>         0.0000
     17 H9          2.0560   -2.2389    4.9494 H         1 <0>         0.0000
@<TRIPOS>BOND
     1    1    3 ar
     2    1    4 ar
     3    2    4 ar
     4    2    5 ar
     5    3    8 ar
     6    4    6 1
     7    5    7 1
     8    5    8 ar
     9    1    9 1
    10    2   10 1
    11    3   11 1
    12    6   12 1
    13    6   13 1
    14    6   14 1
    15    7   15 1
    16    7   16 1
    17    7   17 1
@<TRIPOS>MOLECULE
2,5-dimethylpyridine
   17    17     0     0     0
SMALL
NO_CHARGES

@<TRIPOS>ATOM
      1 C1          1.3879   -0.0684    1.6522 C.ar      1 <0>         0.0000
      2 C2          1.6520   -0.6227    2.8997 C.ar      1 <0>         0.0000
      3 C3         -0.6317   -1.3224    1.5803 C.ar      1 <0>         0.0000
      4 C4          0.2265   -0.4197    0.9733 C.ar      1 <0>         0.0000
      5 C5          0.7299   -1.5161    3.4206 C.ar      1 <0>         0.0000
      6 C6         -0.0843    0.1554   -0.3628 C.3       1 <0>         0.0000
      7 C7          0.9809   -2.1299    4.7574 C.3       1 <0>         0.0000
      8 N1         -0.4092   -1.8816    2.7908 N.ar      1 <0>         0.0000
      9 H1          2.0917    0.6356    1.2169 H         1 <0>         0.0000
     10 H2          2.5544   -0.3570    3.4396 H         1 <0>         0.0000
     11 H3         -1.5532   -1.6341    1.0984 H         1 <0>         0.0000
     12 H4          0.3339   -0.4733   -1.1603 H         1 <0>         0.0000
     13 H5         -1.1686    0.2389   -0.5226 H         1 <0>         0.0000
     14 H6          0.3282    1.1686   -0.4705 H         1 <0>         0.0000
     15 H7          0.5461   -1.5088    5.5497 H         1 <0>         0.0000
     16 H8          0.5435   -3.1343    4.8223 H         1 <0>         0.0000
     17 H9          2.0561   -2.2380    4.9497 H         1 <0>         0.0000
@<TRIPOS>BOND
     1    1    2 ar
     2    1    4 ar
     3    2    5 ar
     4    3    4 ar
     5    3    8 ar
     6    4    6 1
     7    5    7 1
     8    5    8 ar
     9    1    9 1
    10    2   10 1
    11    3   11 1
    12    6   12 1
    13    6   13 1
    14    6   14 1
    15    7   15 1
    16    7   16 1
    17    7   17 1
@<TRIPOS>MOLECULE
2,6-dimethylpyridine
   17    17     0     0     0
SMALL
NO_CHARGES

@<TRIPOS>ATOM
      1 C1          1.3879   -0.0684    1.6522 C.ar      1 <0>         0.0000
      2 C2          0.2265   -0.4197    0.9733 C.ar      1 <0>         0.0000
      3 C3          1.6520   -0.6227    2.8997 C.ar      1 <0>         0.0000
      4 C4         -0.6317   -1.3224    1.5803 C.ar      1 <0>         0.0000
      5 C5          0.7299   -1.5161    3.4206 C.ar      1 <0>         0.0000
      6 C6         -1.8875   -1.7228    0.8804 C.3       1 <0>         0.0000
      7 C7          0.9808   -2.1308    4.7573 C.3       1 <0>         0.0000
      8 N1         -0.4092   -1.8816    2.7908 N.ar      1 <0>         0.0000
      9 H1          2.0848    0.6373    1.2103 H         1 <0>         0.0000
     10 H2          0.0081    0.0065   -0.0001 H         1 <0>         0.0000
     11 H3          2.5550   -0.3581    3.4393 H         1 <0>         0.0000
     12 H4         -1.7089   -2.6027    0.2510 H         1 <0>         0.0000
     13 H5         -2.6830   -1.9625    1.5973 H         1 <0>         0.0000
     14 H6         -2.2650   -0.9108    0.2458 H         1 <0>         0.0000
     15 H7          0.5462   -1.5099    5.5497 H         1 <0>         0.0000
     16 H8          0.5430   -3.1350    4.8214 H         1 <0>         0.0000
     17 H9          2.0559   -2.2393    4.9493 H         1 <0>         0.0000
@<TRIPOS>BOND
     1    1    2 ar
     2    1    3 ar
     3    2    4 ar
     4    3    5 ar
     5    4    6 1
     6    4    8 ar
     7    5    7 1
     8    5    8 ar
     9    1    9 1
    10    2   10 1
    11    3   11 1
    12    6   12 1
    13    6   13 1
    14    6   14 1
    15    7   15 1
    16    7   16 1
    17    7   17 1
@<TRIPOS>MOLECULE
3,4-dimethylpyridine
   17    17     0     0     0
SMALL
NO_CHARGES

@<TRIPOS>ATOM
      1 C1          0.2265   -0.4197    0.9733 C.ar      1 <0>         0.0000
      2 C2         -0.6317   -1.3224    1.5803 C.ar      1 <0>         0.0000
      3 C3          0.7299   -1.5161    3.4206 C.ar      1 <0>         0.0000
      4 C4          1.3879   -0.0684    1.6522 C.ar      1 <0>         0.0000
      5 C5          1.6520   -0.6227    2.8997 C.ar      1 <0>         0.0000
      6 C6          2.3327    0.9026    1.0254 C.3       1 <0>         0.0000
      7 C7          2.8800   -0.2801    3.6700 C.3       1 <0>         0.0000
      8 N1         -0.4092   -1.8816    2.7908 N.ar      1 <0>         0.0000
      9 H1         -0.0080   -0.0054   -0.0013 H         1 <0>         0.0000
     10 H2         -1.5510   -1.6289    1.0924 H         1 <0>         0.0000
     11 H3          0.8804   -1.9813    4.3900 H         1 <0>         0.0000
     12 H4          2.0744    1.9274    1.3174 H         1 <0>         0.0000
     13 H5          3.3676    0.7031    1.3305 H         1 <0>         0.0000
     14 H6          2.3043    0.8339   -0.0694 H         1 <0>         0.0000
     15 H7          3.6958   -0.9697    3.4183 H         1 <0>         0.0000
     16 H8          3.2139    0.7443    3.4562 H         1 <0>         0.0000
     17 H9          2.7017   -0.3347    4.7526 H         1 <0>         0.0000
@<TRIPOS>BOND
     1    1    2 ar
     2    1    4 ar
     3    2    8 ar
     4    3    5 ar
     5    3    8 ar
     6    4    5 ar
     7    4    6 1
     8    5    7 1
     9    1    9 1
    10    2   10 1
    11    3   11 1
    12    6   12 1
    13    6   13 1
    14    6   14 1
    15    7   15 1
    16    7   16 1
    17    7   17 1
@<TRIPOS>MOLECULE
3,5-dimethylpyridine
   17    17     0     0     0
SMALL
NO_CHARGES

@<TRIPOS>ATOM
      1 C1          1.3879   -0.0684    1.6522 C.ar      1 <0>         0.0000
      2 C2         -0.6317   -1.3224    1.5803 C.ar      1 <0>         0.0000
      3 C3          0.7299   -1.5161    3.4206 C.ar      1 <0>         0.0000
      4 C4          0.2265   -0.4197    0.9733 C.ar      1 <0>         0.0000
      5 C5          1.6520   -0.6227    2.8997 C.ar      1 <0>         0.0000
      6 C6         -0.0853    0.1564   -0.3622 C.3       1 <0>         0.0000
      7 C7          2.8845   -0.2657    3.6520 C.3       1 <0>         0.0000
      8 N1         -0.4092   -1.8816    2.7908 N.ar      1 <0>         0.0000
      9 H1          2.0875    0.6364    1.2092 H         1 <0>         0.0000
     10 H2         -1.5535   -1.6337    1.0981 H         1 <0>         0.0000
     11 H3          0.8820   -1.9804    4.3903 H         1 <0>         0.0000
     12 H4          0.3330   -0.4713   -1.1604 H         1 <0>         0.0000
     13 H5         -1.1696    0.2394   -0.5214 H         1 <0>         0.0000
     14 H6          0.3265    1.1700   -0.4691 H         1 <0>         0.0000
     15 H7          2.7040    0.6038    4.2982 H         1 <0>         0.0000
     16 H8          3.2266   -1.0986    4.2825 H         1 <0>         0.0000
     17 H9          3.7146   -0.0241    2.9730 H         1 <0>         0.0000
@<TRIPOS>BOND
     1    1    4 ar
     2    1    5 ar
     3    2    4 ar
     4    2    8 ar
     5    3    5 ar
     6    3    8 ar
     7    4    6 1
     8    5    7 1
     9    1    9 1
    10    2   10 1
    11    3   11 1
    12    6   12 1
    13    6   13 1
    14    6   14 1
    15    7   15 1
    16    7   16 1
    17    7   17 1
@<TRIPOS>MOLECULE
2-ethylpyridine
   17    17     0     0     0
SMALL
NO_CHARGES

@<TRIPOS>ATOM
      1 C1          1.3879   -0.0684    1.6522 C.ar      1 <0>         0.0000
      2 C2          0.2265   -0.4197    0.9733 C.ar      1 <0>         0.0000
      3 C3          1.6520   -0.6227    2.8997 C.ar      1 <0>         0.0000
      4 C4         -0.6317   -1.3224    1.5803 C.ar      1 <0>         0.0000
      5 C5          0.7299   -1.5161    3.4206 C.ar      1 <0>         0.0000
      6 C6          1.7636   -3.4365    4.6575 C.3       1 <0>         0.0000
      7 C7          0.9810   -2.1301    4.7574 C.3       1 <0>         0.0000
      8 N1         -0.4092   -1.8816    2.7908 N.ar      1 <0>         0.0000
      9 H1          2.0859    0.6359    1.2097 H         1 <0>         0.0000
     10 H2          0.0002   -0.0003   -0.0003 H         1 <0>         0.0000
     11 H3          2.5545   -0.3569    3.4396 H         1 <0>         0.0000
     12 H4         -1.5509   -1.6291    1.0922 H         1 <0>         0.0000
     13 H5          1.2429   -4.1590    4.0200 H         1 <0>         0.0000
     14 H6          1.8915   -3.8875    5.6466 H         1 <0>         0.0000
     15 H7          2.7581   -3.2673    4.2307 H         1 <0>         0.0000
     16 H8          1.5317   -1.4286    5.4040 H         1 <0>         0.0000
     17 H9          0.0283   -2.3194    5.2772 H         1 <0>         0.0000
@<TRIPOS>BOND
     1    1    2 ar
     2    1    3 ar
     3    2    4 ar
     4    3    5 ar
     5    4    8 ar
     6    5    7 1
     7    5    8 ar
     8    6    7 1
     9    1    9 1
    10    2   10 1
    11    3   11 1
    12    4   12 1
    13    6   13 1
    14    6   14 1
    15    6   15 1
    16    7   16 1
    17    7   17 1
@<TRIPOS>MOLECULE
3-ethylpyridine
   17    17     0     0     0
SMALL
NO_CHARGES

@<TRIPOS>ATOM
      1 C1          0.2265   -0.4197    0.9733 C.ar      1 <0>         0.0000
      2 C2          1.3879   -0.0684    1.6522 C.ar      1 <0>         0.0000
      3 C3         -0.6317   -1.3224    1.5803 C.ar      1 <0>         0.0000
      4 C4          0.7299   -1.5161    3.4206 C.ar      1 <0>         0.0000
      5 C5          1.6520   -0.6227    2.8997 C.ar      1 <0>         0.0000
      6 C6          2.6848    0.9416    4.5649 C.3       1 <0>         0.0000
      7 C7          2.8852   -0.2665    3.6509 C.3       1 <0>         0.0000
      8 N1         -0.4092   -1.8816    2.7908 N.ar      1 <0>         0.0000
      9 H1         -0.0000   -0.0001   -0.0002 H         1 <0>         0.0000
     10 H2          2.0808    0.6373    1.2020 H         1 <0>         0.0000
     11 H3         -1.5507   -1.6289    1.0916 H         1 <0>         0.0000
     12 H4          0.8820   -1.9806    4.3900 H         1 <0>         0.0000
     13 H5          2.3416    1.8115    3.9946 H         1 <0>         0.0000
     14 H6          3.6201    1.2117    5.0651 H         1 <0>         0.0000
     15 H7          1.9367    0.7292    5.3362 H         1 <0>         0.0000
     16 H8          3.2299   -1.1204    4.2587 H         1 <0>         0.0000
     17 H9          3.7155   -0.0543    2.9559 H         1 <0>         0.0000
@<TRIPOS>BOND
     1    1    2 ar
     2    1    3 ar
     3    2    5 ar
     4    3    8 ar
     5    4    5 ar
     6    4    8 ar
     7    5    7 1
     8    6    7 1
     9    1    9 1
    10    2   10 1
    11    3   11 1
    12    4   12 1
    13    6   13 1
    14    6   14 1
    15    6   15 1
    16    7   16 1
    17    7   17 1
@<TRIPOS>MOLECULE
4-ethylpyridine
   17    17     0     0     0
SMALL
NO_CHARGES

@<TRIPOS>ATOM
      1 C1          0.2265   -0.4197    0.9733 C.ar      1 <0>         0.0000
      2 C2          1.6520   -0.6227    2.8997 C.ar      1 <0>         0.0000
      3 C3         -0.6317   -1.3224    1.5803 C.ar      1 <0>         0.0000
      4 C4          0.7299   -1.5161    3.4206 C.ar      1 <0>         0.0000
      5 C5          1.3879   -0.0684    1.6522 C.ar      1 <0>         0.0000
      6 C6          3.4048    0.2066    0.1883 C.3       1 <0>         0.0000
      7 C7          2.3469    0.8982    1.0445 C.3       1 <0>         0.0000
      8 N1         -0.4092   -1.8816    2.7908 N.ar      1 <0>         0.0000
      9 H1         -0.0080   -0.0059   -0.0017 H         1 <0>         0.0000
     10 H2          2.5490   -0.3683    3.4537 H         1 <0>         0.0000
     11 H3         -1.5505   -1.6300    1.0917 H         1 <0>         0.0000
     12 H4          0.8895   -1.9761    4.3902 H         1 <0>         0.0000
     13 H5          3.9597   -0.5351    0.7728 H         1 <0>         0.0000
     14 H6          4.1220    0.9342   -0.2045 H         1 <0>         0.0000
     15 H7          2.9459   -0.3101   -0.6614 H         1 <0>         0.0000
     16 H8          1.8097    1.6355    0.4263 H         1 <0>         0.0000
     17 H9          2.8483    1.4872    1.8295 H         1 <0>         0.0000
@<TRIPOS>BOND
     1    1    3 ar
     2    1    5 ar
     3    2    4 ar
     4    2    5 ar
     5    3    8 ar
     6    4    8 ar
     7    5    7 1
     8    6    7 1
     9    1    9 1
    10    2   10 1
    11    3   11 1
    12    4   12 1
    13    6   13 1
    14    6   14 1
    15    6   15 1
    16    7   16 1
    17    7   17 1
@<TRIPOS>MOLECULE
2-chloropyridine
   11    11     0     0     0
SMALL
NO_CHARGES

@<TRIPOS>ATOM
      1 C1          1.3879   -0.0684    1.6522 C.ar      1 <0>         0.0000
      2 C2          0.2265   -0.4197    0.9733 C.ar      1 <0>         0.0000
      3 C3          1.6520   -0.6227    2.8997 C.ar      1 <0>         0.0000
      4 C4         -0.6317   -1.3224    1.5803 C.ar      1 <0>         0.0000
      5 C5          0.7299   -1.5161    3.4206 C.ar      1 <0>         0.0000
      6 N1         -0.4092   -1.8816    2.7908 N.ar      1 <0>         0.0000
      7 Cl1         0.9732   -2.2488    4.9527 Cl        1 <0>         0.0000
      8 H1          2.0857    0.6366    1.2103 H         1 <0>         0.0000
      9 H2         -0.0002    0.0006    0.0001 H         1 <0>         0.0000
     10 H3          2.5552   -0.3545    3.4378 H         1 <0>         0.0000
     11 H4         -1.5510   -1.6287    1.0921 H         1 <0>         0.0000
@<TRIPOS>BOND
     1    1    2 ar
     2    1    3 ar
     3    2    4 ar
     4    3    5 ar
     5    4    6 ar
     6    5    6 ar
     7    5    7 1
     8    1    8 1
     9    2    9 1
    10    3   10 1
    11    4   11 1
@<TRIPOS>MOLECULE
3-chloropyridine
   11    11     0     0     0
SMALL
NO_CHARGES

@<TRIPOS>ATOM
      1 C1          0.2265   -0.4197    0.9733 C.ar      1 <0>         0.0000
      2 C2          1.3879   -0.0684    1.6522 C.ar      1 <0>         0.0000
      3 C3         -0.6317   -1.3224    1.5803 C.ar      1 <0>         0.0000
      4 C4          0.7299   -1.5161    3.4206 C.ar      1 <0>         0.0000
      5 C5          1.6520   -0.6227    2.8997 C.ar      1 <0>         0.0000
      6 N1         -0.4092   -1.8816    2.7908 N.ar      1 <0>         0.0000
      7 Cl1         3.0741   -0.2130    3.7662 Cl        1 <0>         0.0000
      8 H1          0.0000   -0.0004   -0.0003 H         1 <0>         0.0000
      9 H2          2.0780    0.6376    1.1980 H         1 <0>         0.0000
     10 H3         -1.5509   -1.6290    1.0922 H         1 <0>         0.0000
     11 H4          0.8782   -1.9829    4.3898 H         1 <0>         0.0000
@<TRIPOS>BOND
     1    1    2 ar
     2    1    3 ar
     3    2    5 ar
     4    3    6 ar
     5    4    5 ar
     6    4    6 ar
     7    5    7 1
     8    1    8 1
     9    2    9 1
    10    3   10 1
    11    4   11 1
@<TRIPOS>MOLECULE
3-cyanopyridine
   12    12     0     0     0
SMALL
NO_CHARGES

@<TRIPOS>ATOM
      1 C1          2.8350   -0.2828    3.6206 C.1       1 <0>         0.0000
      2 C2          0.2265   -0.4197    0.9733 C.ar      1 <0>         0.0000
      3 C3          1.3879   -0.0684    1.6522 C.ar      1 <0>         0.0000
      4 C4         -0.6317   -1.3224    1.5803 C.ar      1 <0>         0.0000
      5 C5          0.7299   -1.5161    3.4206 C.ar      1 <0>         0.0000
      6 C6          1.6520   -0.6227    2.8997 C.ar      1 <0>         0.0000
      7 N1          3.7975   -0.0063    4.2071 N.1       1 <0>         0.0000
      8 N2         -0.4092   -1.8816    2.7908 N.ar      1 <0>         0.0000
      9 H1         -0.0010   -0.0002    0.0000 H         1 <0>         0.0000
     10 H2          2.0777    0.6377    1.1968 H         1 <0>         0.0000
     11 H3         -1.5504   -1.6290    1.0917 H         1 <0>         0.0000
     12 H4          0.8767   -1.9834    4.3904 H         1 <0>         0.0000
@<TRIPOS>BOND
     1    1    6 1
     2    1    7 3
     3    2    3 ar
     4    2    4 ar
     5    3    6 ar
     6    4    8 ar
     7    5    6 ar
     8    5    8 ar
     9    2    9 1
    10    3   10 1
    11    4   11 1
    12    5   12 1
@<TRIPOS>MOLECULE
4-cyanopyridine
   12    12     0     0     0
SMALL
NO_CHARGES

@<TRIPOS>ATOM
      1 C1          2.3060    0.8582    1.0694 C.1       1 <0>         0.0000
      2 C2          0.2265   -0.4197    0.9733 C.ar      1 <0>         0.0000
      3 C3          1.6520   -0.6227    2.8997 C.ar      1 <0>         0.0000
      4 C4         -0.6317   -1.3224    1.5803 C.ar      1 <0>         0.0000
      5 C5          0.7299   -1.5161    3.4206 C.ar      1 <0>         0.0000
      6 C6          1.3879   -0.0684    1.6522 C.ar      1 <0>         0.0000
      7 N1          3.0517    1.6109    0.5961 N.1       1 <0>         0.0000
      8 N2         -0.4092   -1.8816    2.7908 N.ar      1 <0>         0.0000
      9 H1         -0.0133   -0.0084   -0.0019 H         1 <0>         0.0000
     10 H2          2.5477   -0.3729    3.4592 H         1 <0>         0.0000
     11 H3         -1.5511   -1.6289    1.0925 H         1 <0>         0.0000
     12 H4          0.8893   -1.9760    4.3905 H         1 <0>         0.0000
@<TRIPOS>BOND
     1    1    6 1
     2    1    7 3
     3    2    4 ar
     4    2    6 ar
     5    3    5 ar
     6    3    6 ar
     7    4    8 ar
     8    5    8 ar
     9    2    9 1
    10    3   10 1
    11    4   11 1
    12    5   12 1
@<TRIPOS>MOLECULE
3-formylpyridine
   14    14     0     0     0
SMALL
NO_CHARGES

@<TRIPOS>ATOM
      1 C1          0.2265   -0.4197    0.9733 C.ar      1 <0>         0.0000
      2 C2          1.3879   -0.0684    1.6522 C.ar      1 <0>         0.0000
      3 C3         -0.6317   -1.3224    1.5803 C.ar      1 <0>         0.0000
      4 C4          0.7299   -1.5161    3.4206 C.ar      1 <0>         0.0000
      5 C5          1.6520   -0.6227    2.8997 C.ar      1 <0>         0.0000
      6 C6          3.8685   -1.1299    3.3099 C.2       1 <0>         0.0000
      7 N1         -0.4092   -1.8816    2.7908 N.ar      1 <0>         0.0000
      8 O1          3.8920   -2.0785    2.5413 O.2       1 <0>         0.0000
      9 O2          2.7762   -0.2981    3.5846 O.3       1 <0>         0.0000
     10 H1          0.0007   -0.0004   -0.0004 H         1 <0>         0.0000
     11 H2          2.0831    0.6363    1.2047 H         1 <0>         0.0000
     12 H3         -1.5508   -1.6283    1.0910 H         1 <0>         0.0000
     13 H4          0.8852   -1.9793    4.3899 H         1 <0>         0.0000
     14 H5          4.7323   -0.7939    3.9056 H         1 <0>         0.0000
@<TRIPOS>BOND
     1    1    2 ar
     2    1    3 ar
     3    2    5 ar
     4    3    7 ar
     5    4    5 ar
     6    4    7 ar
     7    5    9 1
     8    6    8 2
     9    6    9 1
    10    1   10 1
    11    2   11 1
    12    3   12 1
    13    4   13 1
    14    6   14 1
@<TRIPOS>MOLECULE
4-formylpyridine
   14    14     0     0     0
SMALL
NO_CHARGES

@<TRIPOS>ATOM
      1 C1          0.2265   -0.4197    0.9733 C.ar      1 <0>         0.0000
      2 C2          1.6520   -0.6227    2.8997 C.ar      1 <0>         0.0000
      3 C3         -0.6317   -1.3224    1.5803 C.ar      1 <0>         0.0000
      4 C4          0.7299   -1.5161    3.4206 C.ar      1 <0>         0.0000
      5 C5          1.3879   -0.0684    1.6522 C.ar      1 <0>         0.0000
      6 C6          2.0038    2.1473    1.4301 C.2       1 <0>         0.0000
      7 N1         -0.4092   -1.8816    2.7908 N.ar      1 <0>         0.0000
      8 O1          1.1035    2.5671    2.1404 O.2       1 <0>         0.0000
      9 O2          2.2627    0.8141    1.0980 O.3       1 <0>         0.0000
     10 H1         -0.0052   -0.0041   -0.0012 H         1 <0>         0.0000
     11 H2          2.5498   -0.3674    3.4518 H         1 <0>         0.0000
     12 H3         -1.5505   -1.6299    1.0920 H         1 <0>         0.0000
     13 H4          0.8882   -1.9749    4.3910 H         1 <0>         0.0000
     14 H5          2.7566    2.7867    0.9418 H         1 <0>         0.0000
@<TRIPOS>BOND
     1    1    3 ar
     2    1    5 ar
     3    2    4 ar
     4    2    5 ar
     5    3    7 ar
     6    4    7 ar
     7    5    9 1
     8    6    8 2
     9    6    9 1
    10    1   10 1
    11    2   11 1
    12    3   12 1
    13    4   13 1
    14    6   14 1
@<TRIPOS>MOLECULE
3-acetylpyridine
   17    17     0     0     0
SMALL
NO_CHARGES

@<TRIPOS>ATOM
      1 C1          0.2265   -0.4197    0.9733 C.ar      1 <0>         0.0000
      2 C2          1.3879   -0.0684    1.6522 C.ar      1 <0>         0.0000
      3 C3         -0.6317   -1.3224    1.5803 C.ar      1 <0>         0.0000
      4 C4          0.7299   -1.5161    3.4206 C.ar      1 <0>         0.0000
      5 C5          1.6520   -0.6227    2.8997 C.ar      1 <0>         0.0000
      6 C6          3.8789   -1.1288    3.3147 C.2       1 <0>         0.0000
      7 C7          5.0676   -0.6897    4.1173 C.3       1 <0>         0.0000
      8 N1         -0.4092   -1.8816    2.7908 N.ar      1 <0>         0.0000
      9 O1          3.8831   -2.0774    2.5415 O.2       1 <0>         0.0000
     10 O2          2.7762   -0.2981    3.5846 O.3       1 <0>         0.0000
     11 H1          0.0007   -0.0004   -0.0004 H         1 <0>         0.0000
     12 H2          2.0831    0.6363    1.2047 H         1 <0>         0.0000
     13 H3         -1.5508   -1.6283    1.0910 H         1 <0>         0.0000
     14 H4          0.8852   -1.9793    4.3899 H         1 <0>         0.0000
     15 H5          5.6473    0.0435    3.5509 H         1 <0>         0.0000
     16 H6          5.7054   -1.5545    4.3221 H         1 <0>         0.0000
     17 H7          4.7363   -0.2676    5.0694 H         1 <0>         0.0000
@<TRIPOS>BOND
     1    1    2 ar
     2    1    3 ar
     3    2    5 ar
     4    3    8 ar
     5    4    5 ar
     6    4    8 ar
     7    5   10 1
     8    6    7 1
     9    6    9 2
    10    6   10 1
    11    1   11 1
    12    2   12 1
    13    3   13 1
    14    4   14 1
    15    7   15 1
    16    7   16 1
    17    7   17 1
@<TRIPOS>MOLECULE
4-acetylpyridine
   17    17     0     0     0
SMALL
NO_CHARGES

@<TRIPOS>ATOM
      1 C1          0.2265   -0.4197    0.9733 C.ar      1 <0>         0.0000
      2 C2          1.6520   -0.6227    2.8997 C.ar      1 <0>         0.0000
      3 C3         -0.6317   -1.3224    1.5803 C.ar      1 <0>         0.0000
      4 C4          0.7299   -1.5161    3.4206 C.ar      1 <0>         0.0000
      5 C5          1.3879   -0.0684    1.6522 C.ar      1 <0>         0.0000
      6 C6          2.0101    2.1563    1.4264 C.2       1 <0>         0.0000
      7 C7          3.0239    3.0459    0.7702 C.3       1 <0>         0.0000
      8 N1         -0.4092   -1.8816    2.7908 N.ar      1 <0>         0.0000
      9 O1          1.1004    2.5588    2.1395 O.2       1 <0>         0.0000
     10 O2          2.2627    0.8141    1.0980 O.3       1 <0>         0.0000
     11 H1         -0.0052   -0.0041   -0.0012 H         1 <0>         0.0000
     12 H2          2.5498   -0.3674    3.4518 H         1 <0>         0.0000
     13 H3         -1.5505   -1.6299    1.0920 H         1 <0>         0.0000
     14 H4          0.8882   -1.9749    4.3910 H         1 <0>         0.0000
     15 H5          3.8830    3.1807    1.4322 H         1 <0>         0.0000
     16 H6          2.5757    4.0250    0.5779 H         1 <0>         0.0000
     17 H7          3.3356    2.6120   -0.1832 H         1 <0>         0.0000
@<TRIPOS>BOND
     1    1    3 ar
     2    1    5 ar
     3    2    4 ar
     4    2    5 ar
     5    3    8 ar
     6    4    8 ar
     7    5   10 1
     8    6    7 1
     9    6    9 2
    10    6   10 1
    11    1   11 1
    12    2   12 1
    13    3   13 1
    14    4   14 1
    15    7   15 1
    16    7   16 1
    17    7   17 1
@<TRIPOS>MOLECULE
2-methylpyrazine
   13    13     0     0     0
SMALL
NO_CHARGES

@<TRIPOS>ATOM
      1 C1         -1.5571   -1.3073    0.7174 C.ar      1 <0>         0.0000
      2 C2         -0.3211   -1.0181    0.1824 C.ar      1 <0>         0.0000
      3 C3         -1.0772   -3.5410    0.6188 C.ar      1 <0>         0.0000
      4 C4          0.1585   -3.2519    0.0831 C.ar      1 <0>         0.0000
      5 C5          1.1054   -4.3465   -0.2662 C.3       1 <0>         0.0000
      6 N1         -1.9573   -2.5739    0.9453 N.ar      1 <0>         0.0000
      7 N2          0.5588   -1.9852   -0.1444 N.ar      1 <0>         0.0000
      8 H1         -2.2637   -0.5296    0.9796 H         1 <0>         0.0000
      9 H2         -0.0002    0.0000   -0.0002 H         1 <0>         0.0000
     10 H3         -1.4057   -4.5568    0.8048 H         1 <0>         0.0000
     11 H4          0.9500   -4.6732   -1.3026 H         1 <0>         0.0000
     12 H5          2.1497   -4.0229   -0.1584 H         1 <0>         0.0000
     13 H6          0.9747   -5.2154    0.3937 H         1 <0>         0.0000
@<TRIPOS>BOND
     1    1    2 ar
     2    1    6 ar
     3    2    7 ar
     4    3    4 ar
     5    3    6 ar
     6    4    5 1
     7    4    7 ar
     8    1    8 1
     9    2    9 1
    10    3   10 1
    11    5   11 1
    12    5   12 1
    13    5   13 1
@<TRIPOS>MOLECULE
2-ethylpyrazine
   16    16     0     0     0
SMALL
NO_CHARGES

@<TRIPOS>ATOM
      1 C1         -1.5571   -1.3073    0.7174 C.ar      1 <0>         0.0000
      2 C2         -0.3211   -1.0181    0.1824 C.ar      1 <0>         0.0000
      3 C3         -1.0772   -3.5410    0.6188 C.ar      1 <0>         0.0000
      4 C4          0.1585   -3.2519    0.0831 C.ar      1 <0>         0.0000
      5 C5          2.0249   -4.7153    0.8964 C.3       1 <0>         0.0000
      6 C6          1.1054   -4.3465   -0.2662 C.3       1 <0>         0.0000
      7 N1         -1.9573   -2.5739    0.9453 N.ar      1 <0>         0.0000
      8 N2          0.5588   -1.9852   -0.1444 N.ar      1 <0>         0.0000
      9 H1         -2.2637   -0.5296    0.9796 H         1 <0>         0.0000
     10 H2         -0.0002    0.0000   -0.0002 H         1 <0>         0.0000
     11 H3         -1.4057   -4.5568    0.8048 H         1 <0>         0.0000
     12 H4          2.5896   -3.8427    1.2417 H         1 <0>         0.0000
     13 H5          2.7417   -5.4860    0.5962 H         1 <0>         0.0000
     14 H6          1.4489   -5.0999    1.7450 H         1 <0>         0.0000
     15 H7          0.5546   -5.2466   -0.5864 H         1 <0>         0.0000
     16 H8          1.7227   -4.0613   -1.1344 H         1 <0>         0.0000
@<TRIPOS>BOND
     1    1    2 ar
     2    1    7 ar
     3    2    8 ar
     4    3    4 ar
     5    3    7 ar
     6    4    6 1
     7    4    8 ar
     8    5    6 1
     9    1    9 1
    10    2   10 1
    11    3   11 1
    12    5   12 1
    13    5   13 1
    14    5   14 1
    15    6   15 1
    16    6   16 1
@<TRIPOS>MOLECULE
2-isobutylpyrazine
   22    22     0     0     0
SMALL
NO_CHARGES

@<TRIPOS>ATOM
      1 C1         -2.3674    3.1519   -1.9935 C.ar      1 <0>         0.0000
      2 C2         -1.0138    2.9292   -1.8687 C.ar      1 <0>         0.0000
      3 C3         -2.6406    2.7432    0.2398 C.ar      1 <0>         0.0000
      4 C4         -1.2871    2.5197    0.3646 C.ar      1 <0>         0.0000
      5 C5          0.1917   -0.1014    0.9400 C.3       1 <0>         0.0000
      6 C6         -0.0721    0.3940    3.3790 C.3       1 <0>         0.0000
      7 C7         -0.6900    2.1628    1.7040 C.3       1 <0>         0.0000
      8 C8         -0.6434    0.6475    1.9816 C.3       1 <0>         0.0000
      9 N1         -3.2051    3.0630   -0.9415 N.ar      1 <0>         0.0000
     10 N2         -0.4493    2.6090   -0.6874 N.ar      1 <0>         0.0000
     11 H1         -2.8202    3.4090   -2.9431 H         1 <0>         0.0000
     12 H2         -0.3412    3.0011   -2.7145 H         1 <0>         0.0000
     13 H3         -3.3202    2.6735    1.0811 H         1 <0>         0.0000
     14 H4          1.2232    0.2664    0.9185 H         1 <0>         0.0000
     15 H5         -0.2307    0.0093   -0.0635 H         1 <0>         0.0000
     16 H6          0.2207   -1.1732    1.1646 H         1 <0>         0.0000
     17 H7          0.9483    0.7835    3.4589 H         1 <0>         0.0000
     18 H8         -0.6808    0.8772    4.1511 H         1 <0>         0.0000
     19 H9         -0.0367   -0.6787    3.5963 H         1 <0>         0.0000
     20 H10         0.3182    2.5893    1.7889 H         1 <0>         0.0000
     21 H11        -1.2868    2.6637    2.4783 H         1 <0>         0.0000
     22 H12        -1.6618    0.2391    1.9586 H         1 <0>         0.0000
@<TRIPOS>BOND
     1    1    2 ar
     2    1    9 ar
     3    2   10 ar
     4    3    4 ar
     5    3    9 ar
     6    4    7 1
     7    4   10 ar
     8    5    8 1
     9    6    8 1
    10    7    8 1
    11    1   11 1
    12    2   12 1
    13    3   13 1
    14    5   14 1
    15    5   15 1
    16    5   16 1
    17    6   17 1
    18    6   18 1
    19    6   19 1
    20    7   20 1
    21    7   21 1
    22    8   22 1
@<TRIPOS>MOLECULE
thiophene
    9     9     0     0     0
SMALL
NO_CHARGES

@<TRIPOS>ATOM
      1 C1         -0.2528    0.8087   -2.0577 C.2       1 <0>         0.0000
      2 C2         -0.4682   -0.0882   -0.9718 C.2       1 <0>         0.0000
      3 C3         -0.9783    0.4538   -3.1737 C.2       1 <0>         0.0000
      4 C4         -1.3504   -1.0945   -1.2990 C.2       1 <0>         0.0000
      5 S1         -1.9146   -0.9556   -2.9098 S.3       1 <0>         0.0000
      6 H1          0.4010    1.6704   -2.0224 H         1 <0>         0.0000
      7 H2         -0.0002   -0.0001    0.0001 H         1 <0>         0.0000
      8 H3         -1.0031    0.9546   -4.1312 H         1 <0>         0.0000
      9 H4         -1.6902   -1.9046   -0.6692 H         1 <0>         0.0000
@<TRIPOS>BOND
     1    1    2 1
     2    1    3 2
     3    2    4 2
     4    3    5 1
     5    4    5 1
     6    1    6 1
     7    2    7 1
     8    3    8 1
     9    4    9 1
@<TRIPOS>MOLECULE
2-methylthiophene
   12    12     0     0     0
SMALL
NO_CHARGES

@<TRIPOS>ATOM
      1 C1         -0.2528    0.8087   -2.0577 C.2       1 <0>         0.0000
      2 C2         -0.4682   -0.0882   -0.9718 C.2       1 <0>         0.0000
      3 C3         -0.9783    0.4538   -3.1737 C.2       1 <0>         0.0000
      4 C4         -1.3504   -1.0945   -1.2990 C.2       1 <0>         0.0000
      5 C5         -1.8295   -2.2094   -0.4535 C.3       1 <0>         0.0000
      6 S1         -1.9146   -0.9556   -2.9098 S.3       1 <0>         0.0000
      7 H1          0.4002    1.6709   -2.0228 H         1 <0>         0.0000
      8 H2          0.0016    0.0052   -0.0008 H         1 <0>         0.0000
      9 H3         -1.0031    0.9544   -4.1313 H         1 <0>         0.0000
     10 H4         -2.7408   -1.9248    0.0953 H         1 <0>         0.0000
     11 H5         -2.0609   -3.1071   -1.0498 H         1 <0>         0.0000
     12 H6         -1.0726   -2.5187    0.2860 H         1 <0>         0.0000
@<TRIPOS>BOND
     1    1    2 1
     2    1    3 2
     3    2    4 2
     4    3    6 1
     5    4    5 1
     6    4    6 1
     7    1    7 1
     8    2    8 1
     9    3    9 1
    10    5   10 1
    11    5   11 1
    12    5   12 1
@<TRIPOS>MOLECULE
dimethylether
    9     8     0     0     0
SMALL
NO_CHARGES

@<TRIPOS>ATOM
      1 C1         -0.6104   -0.5152    0.7482 C.3       1 <0>         0.0000
      2 C2          1.2893   -1.1660    1.9689 C.3       1 <0>         0.0000
      3 O1          0.0353   -0.4987    2.0141 O.3       1 <0>         0.0000
      4 H1         -1.5686    0.0052    0.8203 H         1 <0>         0.0000
      5 H2         -0.7682   -1.5494    0.4320 H         1 <0>         0.0000
      6 H3          0.0241   -0.0060    0.0189 H         1 <0>         0.0000
      7 H4          1.7559   -1.1337    2.9566 H         1 <0>         0.0000
      8 H5          1.9352   -0.6803    1.2331 H         1 <0>         0.0000
      9 H6          1.1279   -2.2068    1.6786 H         1 <0>         0.0000
@<TRIPOS>BOND
     1    1    3 1
     2    2    3 1
     3    1    4 1
     4    1    5 1
     5    1    6 1
     6    2    7 1
     7    2    8 1
     8    2    9 1
@<TRIPOS>MOLECULE
methylethylether
   12    11     0     0     0
SMALL
NO_CHARGES

@<TRIPOS>ATOM
      1 C1          1.0662   -2.6494    2.1722 C.3       1 <0>         0.0000
      2 C2          0.1829    0.9026    1.8285 C.3       1 <0>         0.0000
      3 C3          1.2893   -1.1660    1.9689 C.3       1 <0>         0.0000
      4 O1          0.0353   -0.4987    2.0141 O.3       1 <0>         0.0000
      5 H1          0.6018   -2.8447    3.1428 H         1 <0>         0.0000
      6 H2          0.4226   -3.0545    1.3844 H         1 <0>         0.0000
      7 H3          2.0152   -3.1932    2.1189 H         1 <0>         0.0000
      8 H4         -0.7985    1.3816    1.8691 H         1 <0>         0.0000
      9 H5          0.6545    1.0952    0.8616 H         1 <0>         0.0000
     10 H6          0.8141    1.3022    2.6257 H         1 <0>         0.0000
     11 H7          1.7540   -0.9775    0.9965 H         1 <0>         0.0000
     12 H8          1.9318   -0.7627    2.7574 H         1 <0>         0.0000
@<TRIPOS>BOND
     1    1    3 1
     2    2    4 1
     3    3    4 1
     4    1    5 1
     5    1    6 1
     6    1    7 1
     7    2    8 1
     8    2    9 1
     9    2   10 1
    10    3   11 1
    11    3   12 1
@<TRIPOS>MOLECULE
methyl-tert-butylether
   18    17     0     0     0
SMALL
NO_CHARGES

@<TRIPOS>ATOM
      1 C1         -0.4645   -0.0646    0.9894 C.3       1 <0>         0.0000
      2 C2          1.6273    0.6910    2.1567 C.3       1 <0>         0.0000
      3 C3          1.2036   -1.7604    1.8118 C.3       1 <0>         0.0000
      4 C4         -1.1266   -1.4328    3.3392 C.3       1 <0>         0.0000
      5 C5          0.5609   -0.3988    2.0719 C.3       1 <0>         0.0000
      6 O1         -0.1082   -0.4451    3.3327 O.3       1 <0>         0.0000
      7 H1         -1.2317   -0.8445    0.9253 H         1 <0>         0.0000
      8 H2         -0.9578    0.8935    1.1830 H         1 <0>         0.0000
      9 H3          0.0103   -0.0162    0.0027 H         1 <0>         0.0000
     10 H4          2.3651    0.4554    2.9322 H         1 <0>         0.0000
     11 H5          1.1816    1.6524    2.4367 H         1 <0>         0.0000
     12 H6          2.1531    0.8168    1.2047 H         1 <0>         0.0000
     13 H7          1.9391   -2.0003    2.5882 H         1 <0>         0.0000
     14 H8          0.4566   -2.5604    1.7845 H         1 <0>         0.0000
     15 H9          1.7476   -1.7592    0.8603 H         1 <0>         0.0000
     16 H10        -1.6185   -1.4436    4.3149 H         1 <0>         0.0000
     17 H11        -0.6875   -2.4115    3.1298 H         1 <0>         0.0000
     18 H12        -1.8603   -1.1919    2.5664 H         1 <0>         0.0000
@<TRIPOS>BOND
     1    1    5 1
     2    2    5 1
     3    3    5 1
     4    4    6 1
     5    5    6 1
     6    1    7 1
     7    1    8 1
     8    1    9 1
     9    2   10 1
    10    2   11 1
    11    2   12 1
    12    3   13 1
    13    3   14 1
    14    3   15 1
    15    4   16 1
    16    4   17 1
    17    4   18 1
@<TRIPOS>MOLECULE
3,3-dimethyl-2-butanone
   19    18     0     0     0
SMALL
NO_CHARGES

@<TRIPOS>ATOM
      1 C1         -1.9541   -0.8993   -0.0332 C.2       1 <0>         0.0000
      2 C2         -0.6286   -0.3787   -0.5367 C.3       1 <0>         0.0000
      3 C3         -1.8402    0.0713    2.2688 C.3       1 <0>         0.0000
      4 C4         -1.1119   -2.3073    1.8941 C.3       1 <0>         0.0000
      5 C5         -3.5277   -1.7025    1.7550 C.3       1 <0>         0.0000
      6 C6         -2.0979   -1.2116    1.4689 C.3       1 <0>         0.0000
      7 O1         -2.8917   -1.0445   -0.8212 O.2       1 <0>         0.0000
      8 H1          0.0047   -1.2220   -0.8286 H         1 <0>         0.0000
      9 H2         -0.7746    0.2541   -1.4141 H         1 <0>         0.0000
     10 H3         -0.1220    0.1777    0.2549 H         1 <0>         0.0000
     11 H4         -1.9310   -0.0990    3.3470 H         1 <0>         0.0000
     12 H5         -0.8299    0.4546    2.0852 H         1 <0>         0.0000
     13 H6         -2.5538    0.8575    1.9981 H         1 <0>         0.0000
     14 H7         -1.2011   -2.5415    2.9605 H         1 <0>         0.0000
     15 H8         -0.0764   -1.9982    1.7112 H         1 <0>         0.0000
     16 H9         -1.2893   -3.2370    1.3416 H         1 <0>         0.0000
     17 H10        -3.6608   -1.9332    2.8184 H         1 <0>         0.0000
     18 H11        -3.7581   -2.6138    1.1909 H         1 <0>         0.0000
     19 H12        -4.2713   -0.9461    1.4797 H         1 <0>         0.0000
@<TRIPOS>BOND
     1    1    2 1
     2    1    6 1
     3    1    7 2
     4    3    6 1
     5    4    6 1
     6    5    6 1
     7    2    8 1
     8    2    9 1
     9    2   10 1
    10    3   11 1
    11    3   12 1
    12    3   13 1
    13    4   14 1
    14    4   15 1
    15    4   16 1
    16    5   17 1
    17    5   18 1
    18    5   19 1
@<TRIPOS>MOLECULE
2,4-dimethyl-3-pentanone
   22    21     0     0     0
SMALL
NO_CHARGES

@<TRIPOS>ATOM
      1 C1          0.1056   -0.0864    0.5492 C.2       1 <0>         0.0000
      2 C2          2.2666    1.1698    0.2702 C.3       1 <0>         0.0000
      3 C3          0.0632    2.2925   -0.1867 C.3       1 <0>         0.0000
      4 C4         -2.0775   -1.3244    0.7161 C.3       1 <0>         0.0000
      5 C5         -0.2604   -2.1326   -0.8230 C.3       1 <0>         0.0000
      6 C6          0.8442    0.9854   -0.2503 C.3       1 <0>         0.0000
      7 C7         -0.9338   -0.9126   -0.2061 C.3       1 <0>         0.0000
      8 O1          0.3363   -0.2748    1.7444 O.2       1 <0>         0.0000
      9 H1          2.2736    1.5064    1.3129 H         1 <0>         0.0000
     10 H2          2.8058    1.9116   -0.3281 H         1 <0>         0.0000
     11 H3          2.8223    0.2270    0.2231 H         1 <0>         0.0000
     12 H4         -0.0182    2.6531    0.8441 H         1 <0>         0.0000
     13 H5          0.5561    3.0785   -0.7699 H         1 <0>         0.0000
     14 H6         -0.9505    2.1610   -0.5787 H         1 <0>         0.0000
     15 H7         -1.7095   -1.9546    1.5331 H         1 <0>         0.0000
     16 H8         -2.5572   -0.4441    1.1565 H         1 <0>         0.0000
     17 H9         -2.8439   -1.8939    0.1784 H         1 <0>         0.0000
     18 H10         0.1708   -2.7803   -0.0516 H         1 <0>         0.0000
     19 H11        -0.9773   -2.7226   -1.4031 H         1 <0>         0.0000
     20 H12         0.5534   -1.8370   -1.4935 H         1 <0>         0.0000
     21 H13         0.9089    0.6501   -1.2919 H         1 <0>         0.0000
     22 H14        -1.3538   -0.2868   -1.0021 H         1 <0>         0.0000
@<TRIPOS>BOND
     1    1    6 1
     2    1    7 1
     3    1    8 2
     4    2    6 1
     5    3    6 1
     6    4    7 1
     7    5    7 1
     8    2    9 1
     9    2   10 1
    10    2   11 1
    11    3   12 1
    12    3   13 1
    13    3   14 1
    14    4   15 1
    15    4   16 1
    16    4   17 1
    17    5   18 1
    18    5   19 1
    19    5   20 1
    20    6   21 1
    21    7   22 1
@<TRIPOS>MOLECULE
methylcyclopropylketone
   14    14     0     0     0
SMALL
NO_CHARGES

@<TRIPOS>ATOM
      1 C1         -0.0565   -0.4470    2.0875 C.2       1 <0>         0.0000
      2 C2         -2.1536   -0.7708    0.6004 C.3       1 <0>         0.0000
      3 C3         -1.1006   -1.7022    0.0756 C.3       1 <0>         0.0000
      4 C4         -0.7025   -0.4113    0.7289 C.3       1 <0>         0.0000
      5 C5         -0.7082    0.3722    3.1685 C.3       1 <0>         0.0000
      6 O1          0.9536   -1.1147    2.3042 O.2       1 <0>         0.0000
      7 H1         -2.7473   -0.2230   -0.1213 H         1 <0>         0.0000
      8 H2         -2.6956   -1.0735    1.4883 H         1 <0>         0.0000
      9 H3         -0.9368   -2.6292    0.6113 H         1 <0>         0.0000
     10 H4         -0.9864   -1.7802   -0.9987 H         1 <0>         0.0000
     11 H5         -0.3344    0.3721    0.0750 H         1 <0>         0.0000
     12 H6         -1.4541   -0.2333    3.6909 H         1 <0>         0.0000
     13 H7         -1.2047    1.2378    2.7230 H         1 <0>         0.0000
     14 H8          0.0478    0.6990    3.8866 H         1 <0>         0.0000
@<TRIPOS>BOND
     1    1    4 1
     2    1    5 1
     3    1    6 2
     4    2    3 1
     5    2    4 1
     6    3    4 1
     7    2    7 1
     8    2    8 1
     9    3    9 1
    10    3   10 1
    11    4   11 1
    12    5   12 1
    13    5   13 1
    14    5   14 1
@<TRIPOS>MOLECULE
methylcyclohexylketone
   23    23     0     0     0
SMALL
NO_CHARGES

@<TRIPOS>ATOM
      1 C1          0.7296   -0.4754   -0.6707 C.2       1 <0>         0.0000
      2 C2          2.9486   -3.1872   -2.0644 C.3       1 <0>         0.0000
      3 C3          2.3702   -2.0527   -2.9021 C.3       1 <0>         0.0000
      4 C4          2.5978   -3.0262   -0.5898 C.3       1 <0>         0.0000
      5 C5          0.8603   -1.9147   -2.7094 C.3       1 <0>         0.0000
      6 C6          1.0887   -2.9170   -0.3777 C.3       1 <0>         0.0000
      7 C7          0.4389   -1.8334   -1.2408 C.3       1 <0>         0.0000
      8 C8          0.3143   -0.2373    0.7559 C.3       1 <0>         0.0000
      9 O1          1.2820    0.3991   -1.3364 O.2       1 <0>         0.0000
     10 H1          2.5626   -4.1465   -2.4306 H         1 <0>         0.0000
     11 H2          4.0376   -3.2147   -2.1833 H         1 <0>         0.0000
     12 H3          2.8627   -1.1113   -2.6301 H         1 <0>         0.0000
     13 H4          2.5895   -2.2283   -3.9615 H         1 <0>         0.0000
     14 H5          2.9829   -3.8843   -0.0269 H         1 <0>         0.0000
     15 H6          3.0980   -2.1374   -0.1875 H         1 <0>         0.0000
     16 H7          0.5073   -1.0336   -3.2590 H         1 <0>         0.0000
     17 H8          0.3717   -2.7858   -3.1648 H         1 <0>         0.0000
     18 H9          0.6300   -3.8836   -0.6225 H         1 <0>         0.0000
     19 H10         0.8872   -2.7313    0.6843 H         1 <0>         0.0000
     20 H11        -0.6504   -1.9512   -1.1799 H         1 <0>         0.0000
     21 H12         1.1317   -0.5113    1.4286 H         1 <0>         0.0000
     22 H13        -0.5580   -0.8522    0.9909 H         1 <0>         0.0000
     23 H14         0.0795    0.8205    0.8975 H         1 <0>         0.0000
@<TRIPOS>BOND
     1    1    7 1
     2    1    8 1
     3    1    9 2
     4    2    3 1
     5    2    4 1
     6    3    5 1
     7    4    6 1
     8    5    7 1
     9    6    7 1
    10    2   10 1
    11    2   11 1
    12    3   12 1
    13    3   13 1
    14    4   14 1
    15    4   15 1
    16    5   16 1
    17    5   17 1
    18    6   18 1
    19    6   19 1
    20    7   20 1
    21    8   21 1
    22    8   22 1
    23    8   23 1
@<TRIPOS>MOLECULE
methyltrimethylacetate
   20    19     0     0     0
SMALL
NO_CHARGES

@<TRIPOS>ATOM
      1 C1         -1.1078   -1.3685    3.4353 C.2       1 <0>         0.0000
      2 C2         -1.7150   -1.3039    4.8039 C.3       1 <0>         0.0000
      3 C3         -0.4645   -0.0646    0.9894 C.3       1 <0>         0.0000
      4 C4          1.6273    0.6910    2.1567 C.3       1 <0>         0.0000
      5 C5          1.2036   -1.7604    1.8118 C.3       1 <0>         0.0000
      6 C6          0.5609   -0.3988    2.0719 C.3       1 <0>         0.0000
      7 O1         -1.4718   -2.1423    2.5600 O.2       1 <0>         0.0000
      8 O2         -0.1082   -0.4451    3.3327 O.3       1 <0>         0.0000
      9 H1         -1.1871   -1.9845    5.4764 H         1 <0>         0.0000
     10 H2         -2.7762   -1.5600    4.7514 H         1 <0>         0.0000
     11 H3         -1.6220   -0.2862    5.1942 H         1 <0>         0.0000
     12 H4         -1.2317   -0.8445    0.9253 H         1 <0>         0.0000
     13 H5         -0.9578    0.8935    1.1830 H         1 <0>         0.0000
     14 H6          0.0103   -0.0162    0.0027 H         1 <0>         0.0000
     15 H7          2.3651    0.4554    2.9322 H         1 <0>         0.0000
     16 H8          1.1816    1.6524    2.4367 H         1 <0>         0.0000
     17 H9          2.1531    0.8168    1.2047 H         1 <0>         0.0000
     18 H10         1.9391   -2.0003    2.5882 H         1 <0>         0.0000
     19 H11         0.4566   -2.5604    1.7845 H         1 <0>         0.0000
     20 H12         1.7476   -1.7592    0.8603 H         1 <0>         0.0000
@<TRIPOS>BOND
     1    1    2 1
     2    1    7 2
     3    1    8 1
     4    3    6 1
     5    4    6 1
     6    5    6 1
     7    6    8 1
     8    2    9 1
     9    2   10 1
    10    2   11 1
    11    3   12 1
    12    3   13 1
    13    3   14 1
    14    4   15 1
    15    4   16 1
    16    4   17 1
    17    5   18 1
    18    5   19 1
    19    5   20 1
@<TRIPOS>MOLECULE
methylcyclopropylcarboxylate
   15    15     0     0     0
SMALL
NO_CHARGES

@<TRIPOS>ATOM
      1 C1         -1.6376   -0.5840   -1.2367 C.2       1 <0>         0.0000
      2 C2         -1.7532   -0.5952    1.3466 C.3       1 <0>         0.0000
      3 C3         -1.0512    0.6696    0.9476 C.3       1 <0>         0.0000
      4 C4         -0.9373   -0.5552    0.0879 C.3       1 <0>         0.0000
      5 C5         -1.3982    0.0405   -3.5031 C.3       1 <0>         0.0000
      6 O1         -2.7484   -1.0654   -1.4142 O.2       1 <0>         0.0000
      7 O2         -0.8483    0.0003   -2.1825 O.3       1 <0>         0.0000
      8 H1         -1.3554   -1.1487    2.1885 H         1 <0>         0.0000
      9 H2         -2.8333   -0.6177    1.2664 H         1 <0>         0.0000
     10 H3         -1.6605    1.4948    0.6000 H         1 <0>         0.0000
     11 H4         -0.1815    0.9661    1.5210 H         1 <0>         0.0000
     12 H5          0.0140   -1.0763    0.1066 H         1 <0>         0.0000
     13 H6         -0.6899    0.5259   -4.1790 H         1 <0>         0.0000
     14 H7         -2.3415    0.5923   -3.4893 H         1 <0>         0.0000
     15 H8         -1.5811   -0.9815   -3.8433 H         1 <0>         0.0000
@<TRIPOS>BOND
     1    1    4 1
     2    1    6 2
     3    1    7 1
     4    2    3 1
     5    2    4 1
     6    3    4 1
     7    5    7 1
     8    2    8 1
     9    2    9 1
    10    3   10 1
    11    3   11 1
    12    4   12 1
    13    5   13 1
    14    5   14 1
    15    5   15 1
@<TRIPOS>MOLECULE
methylcyclohexylcarboxylate
   24    24     0     0     0
SMALL
NO_CHARGES

@<TRIPOS>ATOM
      1 C1          0.7296   -0.4754   -0.6707 C.2       1 <0>         0.0000
      2 C2          2.9486   -3.1872   -2.0644 C.3       1 <0>         0.0000
      3 C3          2.3702   -2.0527   -2.9021 C.3       1 <0>         0.0000
      4 C4          2.5978   -3.0262   -0.5898 C.3       1 <0>         0.0000
      5 C5          0.8603   -1.9147   -2.7094 C.3       1 <0>         0.0000
      6 C6          1.0887   -2.9170   -0.3777 C.3       1 <0>         0.0000
      7 C7          0.4389   -1.8334   -1.2408 C.3       1 <0>         0.0000
      8 C8          0.5122    0.8257    1.2899 C.3       1 <0>         0.0000
      9 O1          1.2743    0.4266   -1.2927 O.2       1 <0>         0.0000
     10 O2          0.2960   -0.4208    0.6208 O.3       1 <0>         0.0000
     11 H1          2.5626   -4.1465   -2.4306 H         1 <0>         0.0000
     12 H2          4.0376   -3.2147   -2.1833 H         1 <0>         0.0000
     13 H3          2.8627   -1.1113   -2.6301 H         1 <0>         0.0000
     14 H4          2.5895   -2.2283   -3.9615 H         1 <0>         0.0000
     15 H5          2.9829   -3.8843   -0.0269 H         1 <0>         0.0000
     16 H6          3.0980   -2.1374   -0.1875 H         1 <0>         0.0000
     17 H7          0.5073   -1.0336   -3.2590 H         1 <0>         0.0000
     18 H8          0.3717   -2.7858   -3.1648 H         1 <0>         0.0000
     19 H9          0.6300   -3.8836   -0.6225 H         1 <0>         0.0000
     20 H10         0.8872   -2.7313    0.6843 H         1 <0>         0.0000
     21 H11        -0.6504   -1.9512   -1.1799 H         1 <0>         0.0000
     22 H12         0.1306    0.7625    2.3119 H         1 <0>         0.0000
     23 H13         0.0009    1.6249    0.7474 H         1 <0>         0.0000
     24 H14         1.5844    1.0338    1.3160 H         1 <0>         0.0000
@<TRIPOS>BOND
     1    1    7 1
     2    1    9 2
     3    1   10 1
     4    2    3 1
     5    2    4 1
     6    3    5 1
     7    4    6 1
     8    5    7 1
     9    6    7 1
    10    8   10 1
    11    2   11 1
    12    2   12 1
    13    3   13 1
    14    3   14 1
    15    4   15 1
    16    4   16 1
    17    5   17 1
    18    5   18 1
    19    6   19 1
    20    6   20 1
    21    7   21 1
    22    8   22 1
    23    8   23 1
    24    8   24 1
@<TRIPOS>MOLECULE
dimethylsulfide
    9     8     0     0     0
SMALL
NO_CHARGES

@<TRIPOS>ATOM
      1 C1          0.9856   -0.3289    0.3401 C.3       1 <0>         0.0000
      2 C2          2.8855   -0.4869    2.3101 C.3       1 <0>         0.0000
      3 S1          1.2245    0.1824    2.0582 S.3       1 <0>         0.0000
      4 H1          0.0025   -0.0056   -0.0107 H         1 <0>         0.0000
      5 H2          1.0509   -1.4171    0.2643 H         1 <0>         0.0000
      6 H3          1.7559    0.1203   -0.2914 H         1 <0>         0.0000
      7 H4          3.2220   -0.2733    3.3276 H         1 <0>         0.0000
      8 H5          3.5810   -0.0303    1.6016 H         1 <0>         0.0000
      9 H6          2.8771   -1.5686    2.1561 H         1 <0>         0.0000
@<TRIPOS>BOND
     1    1    3 1
     2    2    3 1
     3    1    4 1
     4    1    5 1
     5    1    6 1
     6    2    7 1
     7    2    8 1
     8    2    9 1
@<TRIPOS>MOLECULE
methylethylsulfide
   12    11     0     0     0
SMALL
NO_CHARGES

@<TRIPOS>ATOM
      1 C1          2.8444   -1.6729    3.2549 C.3       1 <0>         0.0000
      2 C2          1.6449    1.5272    0.9245 C.3       1 <0>         0.0000
      3 C3          2.8855   -0.4869    2.3101 C.3       1 <0>         0.0000
      4 S1          1.2245    0.1824    2.0582 S.3       1 <0>         0.0000
      5 H1          2.4373   -1.3941    4.2327 H         1 <0>         0.0000
      6 H2          2.2418   -2.4916    2.8472 H         1 <0>         0.0000
      7 H3          3.8575   -2.0562    3.4159 H         1 <0>         0.0000
      8 H4          0.7408    2.0731    0.6438 H         1 <0>         0.0000
      9 H5          2.1102    1.1209    0.0230 H         1 <0>         0.0000
     10 H6          2.3425    2.2156    1.4077 H         1 <0>         0.0000
     11 H7          3.2950   -0.7880    1.3411 H         1 <0>         0.0000
     12 H8          3.5247    0.3014    2.7191 H         1 <0>         0.0000
@<TRIPOS>BOND
     1    1    3 1
     2    2    4 1
     3    3    4 1
     4    1    5 1
     5    1    6 1
     6    1    7 1
     7    2    8 1
     8    2    9 1
     9    2   10 1
    10    3   11 1
    11    3   12 1
@<TRIPOS>MOLECULE
dimethylsulfoxide
   10     9     0     0     0
SMALL
NO_CHARGES

@<TRIPOS>ATOM
      1 C1          0.8446   -0.5678    0.4099 C.3       1 <0>         0.0000
      2 C2          1.0227    1.2504    2.4101 C.3       1 <0>         0.0000
      3 O1          2.1874   -1.1423    2.6713 O.2       1 <0>         0.0000
      4 S1          0.8616   -0.5489    2.2956 S.o       1 <0>         0.0000
      5 H1          0.7501   -1.5984    0.0610 H         1 <0>         0.0000
      6 H2          1.7774   -0.1354    0.0416 H         1 <0>         0.0000
      7 H3         -0.0028    0.0231    0.0561 H         1 <0>         0.0000
      8 H4          1.0572    1.5426    3.4619 H         1 <0>         0.0000
      9 H5          0.1630    1.7160    1.9236 H         1 <0>         0.0000
     10 H6          1.9431    1.5574    1.9091 H         1 <0>         0.0000
@<TRIPOS>BOND
     1    1    4 1
     2    2    4 1
     3    3    4 2
     4    1    5 1
     5    1    6 1
     6    1    7 1
     7    2    8 1
     8    2    9 1
     9    2   10 1
@<TRIPOS>MOLECULE
4-methoxyacetophenone
   21    21     0     0     0
SMALL
NO_CHARGES

@<TRIPOS>ATOM
      1 C1          1.8851   -1.0363   -0.1124 C.ar      1 <0>         0.0000
      2 C2          2.8783   -1.6520    2.0022 C.ar      1 <0>         0.0000
      3 C3          0.8066   -0.4630    0.5610 C.ar      1 <0>         0.0000
      4 C4          1.7997   -1.0786    2.6757 C.ar      1 <0>         0.0000
      5 C5          2.9210   -1.6309    0.6081 C.ar      1 <0>         0.0000
      6 C6          0.7638   -0.4841    1.9551 C.ar      1 <0>         0.0000
      7 C7          4.0457   -2.2285   -0.0938 C.2       1 <0>         0.0000
      8 C8          3.7870   -2.8023   -1.4566 C.3       1 <0>         0.0000
      9 C9         -1.3132    0.6656    1.8143 C.3       1 <0>         0.0000
     10 O1          5.1945   -2.3039    0.3473 O.2       1 <0>         0.0000
     11 O2         -0.2886    0.0750    2.6125 O.3       1 <0>         0.0000
     12 H1          1.9077   -1.0136   -1.1990 H         1 <0>         0.0000
     13 H2          3.6806   -2.1126    2.5729 H         1 <0>         0.0000
     14 H3          0.0026   -0.0015   -0.0059 H         1 <0>         0.0000
     15 H4          1.7717   -1.0984    3.7617 H         1 <0>         0.0000
     16 H5          3.9240   -2.0816   -2.2782 H         1 <0>         0.0000
     17 H6          2.7794   -3.2339   -1.5606 H         1 <0>         0.0000
     18 H7          4.4698   -3.6304   -1.7175 H         1 <0>         0.0000
     19 H8         -2.0918    1.0740    2.4632 H         1 <0>         0.0000
     20 H9         -1.7382   -0.0896    1.1482 H         1 <0>         0.0000
     21 H10        -0.8791    1.4716    1.2180 H         1 <0>         0.0000
@<TRIPOS>BOND
     1    1    3 ar
     2    1    5 ar
     3    2    4 ar
     4    2    5 ar
     5    3    6 ar
     6    4    6 ar
     7    5    7 1
     8    6   11 1
     9    7    8 1
    10    7   10 2
    11    9   11 1
    12    1   12 1
    13    2   13 1
    14    3   14 1
    15    4   15 1
    16    8   16 1
    17    8   17 1
    18    8   18 1
    19    9   19 1
    20    9   20 1
    21    9   21 1
@<TRIPOS>MOLECULE
anthracene
   24    26     0     0     0
SMALL
NO_CHARGES

@<TRIPOS>ATOM
      1 C1          1.1582    1.7944   -0.2577 C.ar      1 <0>         0.0000
      2 C2         -0.0270    1.0691   -0.1893 C.ar      1 <0>         0.0000
      3 C3         -2.6567    7.9090   -1.5237 C.ar      1 <0>         0.0000
      4 C4         -3.8419    7.1837   -1.4556 C.ar      1 <0>         0.0000
      5 C5          1.1224    3.1676   -0.5010 C.ar      1 <0>         0.0000
      6 C6         -1.2510    1.7151   -0.3642 C.ar      1 <0>         0.0000
      7 C7         -1.4327    7.2630   -1.3489 C.ar      1 <0>         0.0000
      8 C8         -3.8061    5.8105   -1.2124 C.ar      1 <0>         0.0000
      9 C9         -0.1545    5.2157   -0.9250 C.ar      1 <0>         0.0000
     10 C10        -2.5292    3.7624   -0.7882 C.ar      1 <0>         0.0000
     11 C11        -0.1017    3.8335   -0.6793 C.ar      1 <0>         0.0000
     12 C12        -1.3047    3.0972   -0.6099 C.ar      1 <0>         0.0000
     13 C13        -1.3790    5.8808   -1.1032 C.ar      1 <0>         0.0000
     14 C14        -2.5821    5.1446   -1.0340 C.ar      1 <0>         0.0000
     15 H1          2.1117    1.2921   -0.1217 H         1 <0>         0.0000
     16 H2          0.0002    0.0001   -0.0001 H         1 <0>         0.0000
     17 H3         -2.6833    8.9782   -1.7129 H         1 <0>         0.0000
     18 H4         -4.7950    7.6863   -1.5917 H         1 <0>         0.0000
     19 H5          2.0617    3.7147   -0.5502 H         1 <0>         0.0000
     20 H6         -2.1654    1.1283   -0.3069 H         1 <0>         0.0000
     21 H7         -0.5183    7.8499   -1.4065 H         1 <0>         0.0000
     22 H8         -4.7452    5.2632   -1.1629 H         1 <0>         0.0000
     23 H9          0.7741    5.7841   -0.9784 H         1 <0>         0.0000
     24 H10        -3.4580    3.1941   -0.7348 H         1 <0>         0.0000
@<TRIPOS>BOND
     1    1    2 ar
     2    1    5 ar
     3    2    6 ar
     4    3    4 ar
     5    3    7 ar
     6    4    8 ar
     7    5   11 ar
     8    6   12 ar
     9    7   13 ar
    10    8   14 ar
    11    9   11 ar
    12    9   13 ar
    13   10   12 ar
    14   10   14 ar
    15   11   12 ar
    16   13   14 ar
    17    1   15 1
    18    2   16 1
    19    3   17 1
    20    4   18 1
    21    5   19 1
    22    6   20 1
    23    7   21 1
    24    8   22 1
    25    9   23 1
    26   10   24 1
@<TRIPOS>MOLECULE
phenanthrene
   24    26     0     0     0
SMALL
NO_CHARGES

@<TRIPOS>ATOM
      1 C1         -6.1104   -1.6946   -5.2170 C.ar      1 <0>         0.0000
      2 C2         -0.7996   -0.2600   -0.6868 C.ar      1 <0>         0.0000
      3 C3         -5.3789   -2.7590   -4.7133 C.ar      1 <0>         0.0000
      4 C4         -1.0390   -1.5865   -1.0103 C.ar      1 <0>         0.0000
      5 C5         -5.7907   -0.3971   -4.8293 C.ar      1 <0>         0.0000
      6 C6         -1.5914    0.7372   -1.2478 C.ar      1 <0>         0.0000
      7 C7         -4.3284   -2.5248   -3.8220 C.ar      1 <0>         0.0000
      8 C8         -2.0700   -1.9147   -1.8948 C.ar      1 <0>         0.0000
      9 C9         -4.4437    1.1681   -3.5665 C.ar      1 <0>         0.0000
     10 C10        -3.4069    1.4481   -2.6824 C.ar      1 <0>         0.0000
     11 C11        -4.7367   -0.1476   -3.9338 C.ar      1 <0>         0.0000
     12 C12        -2.6316    0.4210   -2.1384 C.ar      1 <0>         0.0000
     13 C13        -3.9715   -1.2186   -3.4026 C.ar      1 <0>         0.0000
     14 C14        -2.8985   -0.9287   -2.4872 C.ar      1 <0>         0.0000
     15 H1         -6.9275   -1.8711   -5.9098 H         1 <0>         0.0000
     16 H2          0.0003    0.0003   -0.0005 H         1 <0>         0.0000
     17 H3         -5.6211   -3.7754   -5.0101 H         1 <0>         0.0000
     18 H4         -0.4264   -2.3719   -0.5774 H         1 <0>         0.0000
     19 H5         -6.3771    0.4249   -5.2360 H         1 <0>         0.0000
     20 H6         -1.3874    1.7728   -0.9810 H         1 <0>         0.0000
     21 H7         -3.7904   -3.3974   -3.4607 H         1 <0>         0.0000
     22 H8         -2.2108   -2.9706   -2.1110 H         1 <0>         0.0000
     23 H9         -5.0225    1.9986   -3.9661 H         1 <0>         0.0000
     24 H10        -3.2124    2.4877   -2.4244 H         1 <0>         0.0000
@<TRIPOS>BOND
     1    1    3 ar
     2    1    5 ar
     3    2    4 ar
     4    2    6 ar
     5    3    7 ar
     6    4    8 ar
     7    5   11 ar
     8    6   12 ar
     9    7   13 ar
    10    8   14 ar
    11    9   10 ar
    12    9   11 ar
    13   10   12 ar
    14   11   13 ar
    15   12   14 ar
    16   13   14 ar
    17    1   15 1
    18    2   16 1
    19    3   17 1
    20    4   18 1
    21    5   19 1
    22    6   20 1
    23    7   21 1
    24    8   22 1
    25    9   23 1
    26   10   24 1
@<TRIPOS>MOLECULE
2-methylpropene
   12    11     0     0     0
SMALL
NO_CHARGES

@<TRIPOS>ATOM
      1 C1          0.4692   -0.6874    0.6960 C.2       1 <0>         0.0000
      2 C2          1.1097   -1.7854    0.2679 C.2       1 <0>         0.0000
      3 C3          1.2141   -2.1252   -1.1893 C.3       1 <0>         0.0000
      4 C4          1.7622   -2.7443    1.2190 C.3       1 <0>         0.0000
      5 H1          0.3993   -0.4505    1.7524 H         1 <0>         0.0000
      6 H2          0.0000    0.0000    0.0000 H         1 <0>         0.0000
      7 H3          2.1151   -1.6768   -1.6201 H         1 <0>         0.0000
      8 H4          1.2676   -3.2104   -1.3233 H         1 <0>         0.0000
      9 H5          0.3543   -1.7603   -1.7611 H         1 <0>         0.0000
     10 H6          1.0527   -3.5214    1.5214 H         1 <0>         0.0000
     11 H7          2.6226   -3.2253    0.7424 H         1 <0>         0.0000
     12 H8          2.1190   -2.2466    2.1271 H         1 <0>         0.0000
@<TRIPOS>BOND
     1    1    2 2
     2    2    3 1
     3    2    4 1
     4    1    5 1
     5    1    6 1
     6    3    7 1
     7    3    8 1
     8    3    9 1
     9    4   10 1
    10    4   11 1
    11    4   12 1
@<TRIPOS>MOLECULE
1,2-ethanediol
   10     9     0     0     0
SMALL
NO_CHARGES

@<TRIPOS>ATOM
      1 C1         -0.8936    0.4506    0.4416 C.3       1 <0>         0.0000
      2 C2         -2.1461   -0.1936   -0.1209 C.3       1 <0>         0.0000
      3 O1         -0.8526    0.2362    1.8472 O.3       1 <0>         0.0000
      4 O2         -2.1048   -1.5918    0.1373 O.3       1 <0>         0.0000
      5 H1         -0.8901    1.5299    0.2612 H         1 <0>         0.0000
      6 H2          0.0000    0.0000    0.0000 H         1 <0>         0.0000
      7 H3         -2.2121   -0.0487   -1.2038 H         1 <0>         0.0000
      8 H4         -3.0378    0.2178    0.3611 H         1 <0>         0.0000
      9 H5         -0.0417    0.6602    2.1705 H         1 <0>         0.0000
     10 H6         -2.9182   -1.9683   -0.2350 H         1 <0>         0.0000
@<TRIPOS>BOND
     1    1    2 1
     2    1    3 1
     3    2    4 1
     4    1    5 1
     5    1    6 1
     6    2    7 1
     7    2    8 1
     8    3    9 1
     9    4   10 1
@<TRIPOS>MOLECULE
m-cresol
   16    16     0     0     0
SMALL
NO_CHARGES

@<TRIPOS>ATOM
      1 C1          1.8851   -1.0363   -0.1124 C.ar      1 <0>         0.0000
      2 C2          0.8066   -0.4630    0.5610 C.ar      1 <0>         0.0000
      3 C3          2.9210   -1.6309    0.6081 C.ar      1 <0>         0.0000
      4 C4          1.7997   -1.0786    2.6757 C.ar      1 <0>         0.0000
      5 C5          0.7638   -0.4841    1.9551 C.ar      1 <0>         0.0000
      6 C6          2.8783   -1.6520    2.0022 C.ar      1 <0>         0.0000
      7 C7         -0.3892    0.1293    2.6750 C.3       1 <0>         0.0000
      8 O1          3.8889   -2.2327    2.7053 O.3       1 <0>         0.0000
      9 H1          1.9181   -1.0202   -1.1978 H         1 <0>         0.0000
     10 H2          0.0044   -0.0017   -0.0089 H         1 <0>         0.0000
     11 H3          3.7583   -2.0757    0.0777 H         1 <0>         0.0000
     12 H4          1.7692   -1.0964    3.7626 H         1 <0>         0.0000
     13 H5         -1.1813   -0.6133    2.8305 H         1 <0>         0.0000
     14 H6         -0.0844    0.5229    3.6533 H         1 <0>         0.0000
     15 H7         -0.8086    0.9723    2.1103 H         1 <0>         0.0000
     16 H8          3.7161   -2.1679    3.6580 H         1 <0>         0.0000
@<TRIPOS>BOND
     1    1    2 ar
     2    1    3 ar
     3    2    5 ar
     4    3    6 ar
     5    4    5 ar
     6    4    6 ar
     7    5    7 1
     8    6    8 1
     9    1    9 1
    10    2   10 1
    11    3   11 1
    12    4   12 1
    13    7   13 1
    14    7   14 1
    15    7   15 1
    16    8   16 1
@<TRIPOS>MOLECULE
methylpropylether
   15    14     0     0     0
SMALL
NO_CHARGES

@<TRIPOS>ATOM
      1 C1         -0.0095   -0.6551    0.8768 C.3       1 <0>         0.0000
      2 C2          2.5593   -1.9227    4.8099 C.3       1 <0>         0.0000
      3 C3          1.2444   -0.4434    1.7060 C.3       1 <0>         0.0000
      4 C4          1.2749   -1.3494    2.9273 C.3       1 <0>         0.0000
      5 O1          2.4629   -1.0899    3.6622 O.3       1 <0>         0.0000
      6 H1         -0.0920   -1.6965    0.5497 H         1 <0>         0.0000
      7 H2         -0.8996   -0.4128    1.4659 H         1 <0>         0.0000
      8 H3         -0.0053   -0.0150   -0.0111 H         1 <0>         0.0000
      9 H4          3.4824   -1.6961    5.3490 H         1 <0>         0.0000
     10 H5          2.5527   -2.9713    4.5020 H         1 <0>         0.0000
     11 H6          1.7033   -1.7309    5.4612 H         1 <0>         0.0000
     12 H7          1.3083    0.6043    2.0234 H         1 <0>         0.0000
     13 H8          2.1333   -0.6260    1.0902 H         1 <0>         0.0000
     14 H9          0.4147   -1.1588    3.5770 H         1 <0>         0.0000
     15 H10         1.2712   -2.4035    2.6320 H         1 <0>         0.0000
@<TRIPOS>BOND
     1    1    3 1
     2    2    5 1
     3    3    4 1
     4    4    5 1
     5    1    6 1
     6    1    7 1
     7    1    8 1
     8    2    9 1
     9    2   10 1
    10    2   11 1
    11    3   12 1
    12    3   13 1
    13    4   14 1
    14    4   15 1
@<TRIPOS>MOLECULE
methylisopropylether
   15    14     0     0     0
SMALL
NO_CHARGES

@<TRIPOS>ATOM
      1 C1          1.0765    0.0499    0.1958 C.3       1 <0>         0.0000
      2 C2          2.8427    1.0382    1.6976 C.3       1 <0>         0.0000
      3 C3         -0.5869    2.2451    1.4354 C.3       1 <0>         0.0000
      4 C4          1.3532    0.9191    1.4130 C.3       1 <0>         0.0000
      5 O1          0.8123    2.2184    1.1940 O.3       1 <0>         0.0000
      6 H1          1.5701    0.4471   -0.6963 H         1 <0>         0.0000
      7 H2          1.4331   -0.9713    0.3679 H         1 <0>         0.0000
      8 H3          0.0011   -0.0220   -0.0013 H         1 <0>         0.0000
      9 H4          3.3785    1.4589    0.8413 H         1 <0>         0.0000
     10 H5          3.2667    0.0547    1.9270 H         1 <0>         0.0000
     11 H6          3.0274    1.6718    2.5721 H         1 <0>         0.0000
     12 H7         -0.9687    3.2536    1.2586 H         1 <0>         0.0000
     13 H8         -0.7853    1.9446    2.4672 H         1 <0>         0.0000
     14 H9         -1.0786    1.5472    0.7537 H         1 <0>         0.0000
     15 H10         0.8468    0.4961    2.2868 H         1 <0>         0.0000
@<TRIPOS>BOND
     1    1    4 1
     2    2    4 1
     3    3    5 1
     4    4    5 1
     5    1    6 1
     6    1    7 1
     7    1    8 1
     8    2    9 1
     9    2   10 1
    10    2   11 1
    11    3   12 1
    12    3   13 1
    13    3   14 1
    14    4   15 1
@<TRIPOS>MOLECULE
1,2-dimethoxyethane
   16    15     0     0     0
SMALL
NO_CHARGES

@<TRIPOS>ATOM
      1 C1          0.3152    0.8016    2.4261 C.3       1 <0>         0.0000
      2 C2         -3.2682   -2.2457   -0.3502 C.3       1 <0>         0.0000
      3 C3         -0.8936    0.4506    0.4416 C.3       1 <0>         0.0000
      4 C4         -2.1461   -0.1936   -0.1209 C.3       1 <0>         0.0000
      5 O1         -0.8526    0.2362    1.8472 O.3       1 <0>         0.0000
      6 O2         -2.1048   -1.5918    0.1373 O.3       1 <0>         0.0000
      7 H1          0.3139    0.6186    3.5034 H         1 <0>         0.0000
      8 H2          0.3373    1.8762    2.2283 H         1 <0>         0.0000
      9 H3          1.1956    0.3328    1.9803 H         1 <0>         0.0000
     10 H4         -3.2030   -3.3151   -0.1354 H         1 <0>         0.0000
     11 H5         -3.3535   -2.0842   -1.4277 H         1 <0>         0.0000
     12 H6         -4.1459   -1.8289    0.1494 H         1 <0>         0.0000
     13 H7         -0.8901    1.5299    0.2612 H         1 <0>         0.0000
     14 H8          0.0000    0.0000    0.0000 H         1 <0>         0.0000
     15 H9         -2.2121   -0.0487   -1.2038 H         1 <0>         0.0000
     16 H10        -3.0378    0.2178    0.3611 H         1 <0>         0.0000
@<TRIPOS>BOND
     1    1    5 1
     2    2    6 1
     3    3    4 1
     4    3    5 1
     5    4    6 1
     6    1    7 1
     7    1    8 1
     8    1    9 1
     9    2   10 1
    10    2   11 1
    11    2   12 1
    12    3   13 1
    13    3   14 1
    14    4   15 1
    15    4   16 1
@<TRIPOS>MOLECULE
methyloctanoate
   29    28     0     0     0
SMALL
NO_CHARGES

@<TRIPOS>ATOM
      1 C1          3.3842   -8.3146   -1.2415 C.2       1 <0>         0.0000
      2 C2          0.6181    0.1201   -0.7579 C.3       1 <0>         0.0000
      3 C3          4.2188  -10.5123   -0.9724 C.3       1 <0>         0.0000
      4 C4          3.0544   -7.0607   -0.4620 C.3       1 <0>         0.0000
      5 C5          0.9417   -1.1341   -1.5540 C.3       1 <0>         0.0000
      6 C6          2.5620   -5.9146   -1.3454 C.3       1 <0>         0.0000
      7 C7          1.4908   -2.2417   -0.6552 C.3       1 <0>         0.0000
      8 C8          2.3013   -4.6323   -0.5488 C.3       1 <0>         0.0000
      9 C9          1.7832   -3.5129   -1.4542 C.3       1 <0>         0.0000
     10 O1          3.2867   -8.4365   -2.4549 O.2       1 <0>         0.0000
     11 O2          3.8346   -9.2697   -0.3749 O.3       1 <0>         0.0000
     12 H1          1.5054    0.4941   -0.2372 H         1 <0>         0.0000
     13 H2         -0.1599   -0.0773   -0.0135 H         1 <0>         0.0000
     14 H3          0.2577    0.9097   -1.4247 H         1 <0>         0.0000
     15 H4          4.5611  -11.2005   -0.1957 H         1 <0>         0.0000
     16 H5          5.0178  -10.3374   -1.6973 H         1 <0>         0.0000
     17 H6          3.3544  -10.9435   -1.4829 H         1 <0>         0.0000
     18 H7          3.9708   -6.7498    0.0523 H         1 <0>         0.0000
     19 H8          2.2957   -7.2965    0.2928 H         1 <0>         0.0000
     20 H9          0.0346   -1.4818   -2.0617 H         1 <0>         0.0000
     21 H10         1.6744   -0.8876   -2.3313 H         1 <0>         0.0000
     22 H11         1.6518   -6.2118   -1.8801 H         1 <0>         0.0000
     23 H12         3.3261   -5.7105   -2.1055 H         1 <0>         0.0000
     24 H13         2.4092   -1.8961   -0.1654 H         1 <0>         0.0000
     25 H14         0.7663   -2.4645    0.1374 H         1 <0>         0.0000
     26 H15         3.2293   -4.3088   -0.0617 H         1 <0>         0.0000
     27 H16         1.5709   -4.8243    0.2456 H         1 <0>         0.0000
     28 H17         2.5259   -3.2955   -2.2313 H         1 <0>         0.0000
     29 H18         0.8702   -3.8451   -1.9630 H         1 <0>         0.0000
@<TRIPOS>BOND
     1    1    4 1
     2    1   10 2
     3    1   11 1
     4    2    5 1
     5    3   11 1
     6    4    6 1
     7    5    7 1
     8    6    8 1
     9    7    9 1
    10    8    9 1
    11    2   12 1
    12    2   13 1
    13    2   14 1
    14    3   15 1
    15    3   16 1
    16    3   17 1
    17    4   18 1
    18    4   19 1
    19    5   20 1
    20    5   21 1
    21    6   22 1
    22    6   23 1
    23    7   24 1
    24    7   25 1
    25    8   26 1
    26    8   27 1
    27    9   28 1
    28    9   29 1
@<TRIPOS>MOLECULE
pyrrolidine
   14    14     0     0     0
SMALL
NO_CHARGES

@<TRIPOS>ATOM
      1 C1          0.0092    1.2687   -0.1164 C.3       1 <0>         0.0000
      2 C2          0.2644    0.4683    1.1553 C.3       1 <0>         0.0000
      3 C3         -0.4197    0.2423   -1.1506 C.3       1 <0>         0.0000
      4 C4         -0.0222   -0.9754    0.7795 C.3       1 <0>         0.0000
      5 N1          0.1683   -1.0039   -0.6679 N.3       1 <0>         0.0000
      6 H1         -0.7591    2.0339    0.0328 H         1 <0>         0.0000
      7 H2          0.9311    1.7737   -0.4280 H         1 <0>         0.0000
      8 H3          1.3085    0.5901    1.4667 H         1 <0>         0.0000
      9 H4         -0.3728    0.8026    1.9804 H         1 <0>         0.0000
     10 H5         -1.5128    0.1609   -1.1806 H         1 <0>         0.0000
     11 H6         -0.0649    0.4963   -2.1533 H         1 <0>         0.0000
     12 H7          0.6468   -1.6738    1.2904 H         1 <0>         0.0000
     13 H8         -1.0559   -1.2397    1.0324 H         1 <0>         0.0000
     14 H9         -0.3006   -1.8091   -1.0788 H         1 <0>         0.0000
@<TRIPOS>BOND
     1    1    2 1
     2    1    3 1
     3    2    4 1
     4    3    5 1
     5    4    5 1
     6    1    6 1
     7    1    7 1
     8    2    8 1
     9    2    9 1
    10    3   10 1
    11    3   11 1
    12    4   12 1
    13    4   13 1
    14    5   14 1
@<TRIPOS>MOLECULE
N-methylpiperazine
   19    19     0     0     0
SMALL
NO_CHARGES

@<TRIPOS>ATOM
      1 C1         -0.3124   -0.9378    0.4727 C.3       1 <0>         0.0000
      2 C2          0.0898   -3.3035    0.5317 C.3       1 <0>         0.0000
      3 C3         -0.0739   -0.8523    1.9823 C.3       1 <0>         0.0000
      4 C4          0.3304   -3.2322    2.0417 C.3       1 <0>         0.0000
      5 C5         -0.1859   -2.0442    4.0765 C.3       1 <0>         0.0000
      6 N1          0.4337   -2.0438   -0.1317 N.3       1 <0>         0.0000
      7 N2         -0.4223   -2.1203    2.6363 N.3       1 <0>         0.0000
      8 H1         -1.3837   -1.0498    0.2627 H         1 <0>         0.0000
      9 H2          0.0081   -0.0003    0.0052 H         1 <0>         0.0000
     10 H3          0.7040   -4.1051    0.1069 H         1 <0>         0.0000
     11 H4         -0.9574   -3.5600    0.3265 H         1 <0>         0.0000
     12 H5          0.9747   -0.5881    2.1758 H         1 <0>         0.0000
     13 H6         -0.6949   -0.0436    2.3858 H         1 <0>         0.0000
     14 H7          0.0082   -4.1804    2.4886 H         1 <0>         0.0000
     15 H8          1.4058   -3.1255    2.2387 H         1 <0>         0.0000
     16 H9         -0.4489   -2.9931    4.5511 H         1 <0>         0.0000
     17 H10        -0.7938   -1.2497    4.5179 H         1 <0>         0.0000
     18 H11         0.8677   -1.8311    4.2758 H         1 <0>         0.0000
     19 H12         0.2057   -2.1072   -1.1232 H         1 <0>         0.0000
@<TRIPOS>BOND
     1    1    3 1
     2    1    6 1
     3    2    4 1
     4    2    6 1
     5    3    7 1
     6    4    7 1
     7    5    7 1
     8    1    8 1
     9    1    9 1
    10    2   10 1
    11    2   11 1
    12    3   12 1
    13    3   13 1
    14    4   14 1
    15    4   15 1
    16    5   16 1
    17    5   17 1
    18    5   18 1
    19    6   19 1
@<TRIPOS>MOLECULE
piperidine
   17    17     0     0     0
SMALL
NO_CHARGES

@<TRIPOS>ATOM
      1 C1          0.5789    0.0384   -1.3659 C.3       1 <0>         0.0000
      2 C2          0.6371   -1.2155   -0.4991 C.3       1 <0>         0.0000
      3 C3          0.4799    1.2871   -0.4951 C.3       1 <0>         0.0000
      4 C4         -0.5084   -1.2445    0.5109 C.3       1 <0>         0.0000
      5 C5         -0.6602    1.1695    0.5144 C.3       1 <0>         0.0000
      6 N1         -0.5273   -0.0351    1.3347 N.3       1 <0>         0.0000
      7 H1          1.4820    0.0961   -1.9858 H         1 <0>         0.0000
      8 H2         -0.2771   -0.0142   -2.0474 H         1 <0>         0.0000
      9 H3          0.5858   -2.1049   -1.1399 H         1 <0>         0.0000
     10 H4          1.5970   -1.2564    0.0277 H         1 <0>         0.0000
     11 H5          1.4272    1.4459    0.0323 H         1 <0>         0.0000
     12 H6          0.3180    2.1652   -1.1332 H         1 <0>         0.0000
     13 H7         -1.4626   -1.3271   -0.0209 H         1 <0>         0.0000
     14 H8         -0.4288   -2.1303    1.1526 H         1 <0>         0.0000
     15 H9         -0.6924    2.0564    1.1586 H         1 <0>         0.0000
     16 H10        -1.6171    1.1331   -0.0177 H         1 <0>         0.0000
     17 H11        -1.3187   -0.0857    1.9768 H         1 <0>         0.0000
@<TRIPOS>BOND
     1    1    2 1
     2    1    3 1
     3    2    4 1
     4    3    5 1
     5    4    6 1
     6    5    6 1
     7    1    7 1
     8    1    8 1
     9    2    9 1
    10    2   10 1
    11    3   11 1
    12    3   12 1
    13    4   13 1
    14    4   14 1
    15    5   15 1
    16    5   16 1
    17    6   17 1
@<TRIPOS>MOLECULE
aniline
   14    14     0     0     0
SMALL
NO_CHARGES

@<TRIPOS>ATOM
      1 C1          1.8851   -1.0363   -0.1124 C.ar      1 <0>         0.0000
      2 C2          0.8066   -0.4630    0.5610 C.ar      1 <0>         0.0000
      3 C3          2.9210   -1.6309    0.6081 C.ar      1 <0>         0.0000
      4 C4          0.7638   -0.4841    1.9551 C.ar      1 <0>         0.0000
      5 C5          2.8783   -1.6520    2.0022 C.ar      1 <0>         0.0000
      6 C6          1.7997   -1.0786    2.6757 C.ar      1 <0>         0.0000
      7 N1          1.7568   -1.1003    4.0852 N.pl3     1 <0>         0.0000
      8 H1          1.9184   -1.0196   -1.1980 H         1 <0>         0.0000
      9 H2          0.0003   -0.0001   -0.0001 H         1 <0>         0.0000
     10 H3          3.7609   -2.0773    0.0835 H         1 <0>         0.0000
     11 H4         -0.0810   -0.0345    2.4703 H         1 <0>         0.0000
     12 H5          3.6911   -2.1183    2.5532 H         1 <0>         0.0000
     13 H6          1.0021   -0.6448    4.5574 H         1 <0>         0.0000
     14 H7          2.5279   -1.4875    4.5907 H         1 <0>         0.0000
@<TRIPOS>BOND
     1    1    2 ar
     2    1    3 ar
     3    2    4 ar
     4    3    5 ar
     5    4    6 ar
     6    5    6 ar
     7    6    7 1
     8    1    8 1
     9    2    9 1
    10    3   10 1
    11    4   11 1
    12    5   12 1
    13    7   13 1
    14    7   14 1
@<TRIPOS>MOLECULE
ethanamide
   12    11     0     0     0
SMALL
NO_CHARGES

@<TRIPOS>ATOM
      1 C1         -0.1381   -1.7285    2.1839 C.2       1 <0>         0.0000
      2 C2          0.6297    0.2716    0.8536 C.3       1 <0>         0.0000
      3 C3          1.0473   -0.9600    1.6362 C.3       1 <0>         0.0000
      4 N1          0.2439   -2.8634    2.8664 N.am      1 <0>         0.0000
      5 O1         -1.3065   -1.3815    2.0370 O.2       1 <0>         0.0000
      6 H1         -0.0104   -0.0102    0.0120 H         1 <0>         0.0000
      7 H2          0.0738    0.9703    1.4875 H         1 <0>         0.0000
      8 H3          1.5029    0.8006    0.4576 H         1 <0>         0.0000
      9 H4          1.6871   -0.6636    2.4751 H         1 <0>         0.0000
     10 H5          1.6257   -1.6288    0.9888 H         1 <0>         0.0000
     11 H6          1.2300   -3.0897    2.9485 H         1 <0>         0.0000
     12 H7         -0.4464   -3.4760    3.2878 H         1 <0>         0.0000
@<TRIPOS>BOND
     1    1    3 1
     2    1    4 am
     3    1    5 2
     4    2    3 1
     5    2    6 1
     6    2    7 1
     7    2    8 1
     8    3    9 1
     9    3   10 1
    10    4   11 1
    11    4   12 1
@<TRIPOS>MOLECULE
N-methylacetamide
   12    11     0     0     0
SMALL
NO_CHARGES

@<TRIPOS>ATOM
      1 C1          0.7453   -0.9428    1.8037 C.2       1 <0>         0.0000
      2 C2          0.9501   -0.2286    0.5090 C.3       1 <0>         0.0000
      3 C3          1.1634   -0.7869    4.2498 C.3       1 <0>         0.0000
      4 N1          1.2543   -0.2751    2.9012 N.am      1 <0>         0.0000
      5 O1          0.1659   -2.0225    1.8130 O.2       1 <0>         0.0000
      6 H1          1.8989   -0.5052    0.0217 H         1 <0>         0.0000
      7 H2          0.1653   -0.4616   -0.2284 H         1 <0>         0.0000
      8 H3          0.9682    0.8710    0.5750 H         1 <0>         0.0000
      9 H4          0.2421   -0.4373    4.7231 H         1 <0>         0.0000
     10 H5          2.0156   -0.4438    4.8426 H         1 <0>         0.0000
     11 H6          1.1608   -1.8802    4.2398 H         1 <0>         0.0000
     12 H7          1.7145    0.6181    2.7531 H         1 <0>         0.0000
@<TRIPOS>BOND
     1    1    2 1
     2    1    4 am
     3    1    5 2
     4    3    4 1
     5    2    6 1
     6    2    7 1
     7    2    8 1
     8    3    9 1
     9    3   10 1
    10    3   11 1
    11    4   12 1
@<TRIPOS>MOLECULE
2-methoxyethanamine
   14    13     0     0     0
SMALL
NO_CHARGES

@<TRIPOS>ATOM
      1 C1         -1.1087   -1.3889    0.3271 C.3       1 <0>         0.0000
      2 C2          1.4030    0.9038    1.6631 C.3       1 <0>         0.0000
      3 C3         -0.0186   -0.3296    0.2060 C.3       1 <0>         0.0000
      4 N1         -0.4307    0.6523   -0.7950 N.3       1 <0>         0.0000
      5 O1          0.1522    0.2462    1.5058 O.3       1 <0>         0.0000
      6 H1         -2.0515   -0.9278    0.6425 H         1 <0>         0.0000
      7 H2         -0.8557   -2.1341    1.0904 H         1 <0>         0.0000
      8 H3         -1.2796   -1.9043   -0.6237 H         1 <0>         0.0000
      9 H4          1.4724    1.3202    2.6710 H         1 <0>         0.0000
     10 H5          1.4924    1.7012    0.9210 H         1 <0>         0.0000
     11 H6          2.2069    0.1789    1.5146 H         1 <0>         0.0000
     12 H7          0.9102   -0.8199   -0.1102 H         1 <0>         0.0000
     13 H8         -1.3675    0.4287   -1.1292 H         1 <0>         0.0000
     14 H9         -0.4971    1.5719   -0.3620 H         1 <0>         0.0000
@<TRIPOS>BOND
     1    1    3 1
     2    2    5 1
     3    3    4 1
     4    3    5 1
     5    1    6 1
     6    1    7 1
     7    1    8 1
     8    2    9 1
     9    2   10 1
    10    2   11 1
    11    3   12 1
    12    4   13 1
    13    4   14 1
@<TRIPOS>MOLECULE
methanethiol
    6     5     0     0     0
SMALL
NO_CHARGES

@<TRIPOS>ATOM
      1 C1          0.2788    0.8226    0.6632 C.3       1 <0>         0.0000
      2 S1         -0.4279    2.3668    0.0544 S.3       1 <0>         0.0000
      3 H1         -0.0942    0.6141    1.6690 H         1 <0>         0.0000
      4 H2          1.3683    0.9008    0.6963 H         1 <0>         0.0000
      5 H3         -0.0007   -0.0001    0.0007 H         1 <0>         0.0000
      6 H4          0.1845    2.3556   -1.1387 H         1 <0>         0.0000
@<TRIPOS>BOND
     1    1    2 1
     2    1    3 1
     3    1    4 1
     4    1    5 1
     5    2    6 1
@<TRIPOS>MOLECULE
hydrogensulfide
    3     2     0     0     0
SMALL
NO_CHARGES

@<TRIPOS>ATOM
      1 S1         -0.4574   -0.3303    0.2403 S.3       1 <0>         0.0000
      2 H1          0.0280    0.8930    0.4980 H         1 <0>         0.0000
      3 H2          0.4294   -0.5627   -0.7383 H         1 <0>         0.0000
@<TRIPOS>BOND
     1    1    2 1
     2    1    3 1
@<TRIPOS>MOLECULE
dimethyldisulfide
   10     9     0     0     0
SMALL
NO_CHARGES

@<TRIPOS>ATOM
      1 C1          0.8115   -0.6598    0.3193 C.3       1 <0>         0.0000
      2 C2          1.5891   -4.2574    1.0432 C.3       1 <0>         0.0000
      3 S1          0.2411   -1.6598    1.7146 S.3       1 <0>         0.0000
      4 S2          1.8940   -2.8212    2.1001 S.3       1 <0>         0.0000
      5 H1          0.0179    0.0205    0.0005 H         1 <0>         0.0000
      6 H2          1.0814   -1.3094   -0.5170 H         1 <0>         0.0000
      7 H3          1.6861   -0.0752    0.6146 H         1 <0>         0.0000
      8 H4          2.4059   -4.9758    1.1474 H         1 <0>         0.0000
      9 H5          1.5228   -3.9422   -0.0011 H         1 <0>         0.0000
     10 H6          0.6512   -4.7381    1.3318 H         1 <0>         0.0000
@<TRIPOS>BOND
     1    1    3 1
     2    2    4 1
     3    3    4 1
     4    1    5 1
     5    1    6 1
     6    1    7 1
     7    2    8 1
     8    2    9 1
     9    2   10 1
@<TRIPOS>MOLECULE
fluoromethane
    5     4     0     0     0
SMALL
NO_CHARGES

@<TRIPOS>ATOM
      1 C1          0.0349   -0.0344   -0.0359 C.3       1 <0>         0.0000
      2 F1         -0.7453    0.7337    0.7652 F         1 <0>         0.0000
      3 H1          0.8200    0.5912   -0.4654 H         1 <0>         0.0000
      4 H2          0.4757   -0.8328    0.5646 H         1 <0>         0.0000
      5 H3         -0.5853   -0.4577   -0.8285 H         1 <0>         0.0000
@<TRIPOS>BOND
     1    1    2 1
     2    1    3 1
     3    1    4 1
     4    1    5 1
@<TRIPOS>MOLECULE
1,1-difluoroethane
    8     7     0     0     0
SMALL
NO_CHARGES

@<TRIPOS>ATOM
      1 C1         -0.3709    0.2934   -0.6159 C.3       1 <0>         0.0000
      2 C2          0.3057   -0.3499    0.5679 C.3       1 <0>         0.0000
      3 F1          0.0615    0.3815    1.6825 F         1 <0>         0.0000
      4 F2          1.6481   -0.3449    0.3808 F         1 <0>         0.0000
      5 H1         -0.0095    1.3183   -0.7472 H         1 <0>         0.0000
      6 H2         -0.1530   -0.2584   -1.5346 H         1 <0>         0.0000
      7 H3         -1.4535    0.3373   -0.4674 H         1 <0>         0.0000
      8 H4         -0.0285   -1.3774    0.7339 H         1 <0>         0.0000
@<TRIPOS>BOND
     1    1    2 1
     2    2    3 1
     3    2    4 1
     4    1    5 1
     5    1    6 1
     6    1    7 1
     7    2    8 1
@<TRIPOS>MOLECULE
chloroethylene
    6     5     0     0     0
SMALL
NO_CHARGES

@<TRIPOS>ATOM
      1 C1          0.6579    0.2535   -0.2291 C.2       1 <0>         0.0000
      2 C2         -0.4830   -0.3390    0.1212 C.2       1 <0>         0.0000
      3 Cl1        -0.8307   -1.9798   -0.2212 Cl        1 <0>         0.0000
      4 H1          0.8550    1.2953   -0.0006 H         1 <0>         0.0000
      5 H2          1.4236   -0.3036   -0.7578 H         1 <0>         0.0000
      6 H3         -1.2837    0.1613    0.6486 H         1 <0>         0.0000
@<TRIPOS>BOND
     1    1    2 2
     2    2    3 1
     3    1    4 1
     4    1    5 1
     5    2    6 1
@<TRIPOS>MOLECULE
p-dibromobenzene
   12    12     0     0     0
SMALL
NO_CHARGES

@<TRIPOS>ATOM
      1 C1          1.8851   -1.0363   -0.1124 C.ar      1 <0>         0.0000
      2 C2          0.8066   -0.4630    0.5610 C.ar      1 <0>         0.0000
      3 C3          2.8783   -1.6520    2.0022 C.ar      1 <0>         0.0000
      4 C4          1.7997   -1.0786    2.6757 C.ar      1 <0>         0.0000
      5 C5          2.9210   -1.6309    0.6081 C.ar      1 <0>         0.0000
      6 C6          0.7638   -0.4841    1.9551 C.ar      1 <0>         0.0000
      7 Br1         4.3828   -2.4071   -0.3042 Br        1 <0>         0.0000
      8 Br2        -0.6976    0.2928    2.8674 Br        1 <0>         0.0000
      9 H1          1.9036   -1.0119   -1.1988 H         1 <0>         0.0000
     10 H2          0.0074   -0.0036   -0.0148 H         1 <0>         0.0000
     11 H3          3.6775   -2.1113    2.5780 H         1 <0>         0.0000
     12 H4          1.7810   -1.1033    3.7621 H         1 <0>         0.0000
@<TRIPOS>BOND
     1    1    2 ar
     2    1    5 ar
     3    2    6 ar
     4    3    4 ar
     5    3    5 ar
     6    4    6 ar
     7    5    7 1
     8    6    8 1
     9    1    9 1
    10    2   10 1
    11    3   11 1
    12    4   12 1
@<TRIPOS>MOLECULE
diiodomethane
    5     4     0     0     0
SMALL
NO_CHARGES

@<TRIPOS>ATOM
      1 C1          0.2349   -0.0311    0.0689 C.3       1 <0>         0.0000
      2 I1         -0.5656   -0.3480   -1.8686 I         1 <0>         0.0000
      3 I2         -1.3703    0.6042    1.3001 I         1 <0>         0.0000
      4 H1          1.0230    0.7278    0.0411 H         1 <0>         0.0000
      5 H2          0.6780   -0.9528    0.4585 H         1 <0>         0.0000
@<TRIPOS>BOND
     1    1    2 1
     2    1    3 1
     3    1    4 1
     4    1    5 1
@<TRIPOS>MOLECULE
2-iodopropane
   11    10     0     0     0
SMALL
NO_CHARGES

@<TRIPOS>ATOM
      1 C1         -0.2701   -0.5443   -1.1412 C.3       1 <0>         0.0000
      2 C2          0.2417    1.0079    0.7727 C.3       1 <0>         0.0000
      3 C3         -0.1818   -0.4030    0.3755 C.3       1 <0>         0.0000
      4 I1          1.2321   -1.8337    1.1580 I         1 <0>         0.0000
      5 H1          0.6961   -0.3399   -1.6155 H         1 <0>         0.0000
      6 H2         -0.5645   -1.5630   -1.4156 H         1 <0>         0.0000
      7 H3         -1.0066    0.1438   -1.5711 H         1 <0>         0.0000
      8 H4          1.2235    1.2589    0.3563 H         1 <0>         0.0000
      9 H5          0.3118    1.0959    1.8622 H         1 <0>         0.0000
     10 H6         -0.4733    1.7604    0.4218 H         1 <0>         0.0000
     11 H7         -1.1655   -0.6149    0.8103 H         1 <0>         0.0000
@<TRIPOS>BOND
     1    1    3 1
     2    2    3 1
     3    3    4 1
     4    1    5 1
     5    1    6 1
     6    1    7 1
     7    2    8 1
     8    2    9 1
     9    2   10 1
    10    3   11 1
@<TRIPOS>MOLECULE
bromotrifluoromethane
    5     4     0     0     0
SMALL
NO_CHARGES

@<TRIPOS>ATOM
      1 C1          0.0402   -0.0264   -0.0761 C.3       1 <0>         0.0000
      2 F1          1.2209    0.6099   -0.2543 F         1 <0>         0.0000
      3 F2          0.2904   -1.3558   -0.0650 F         1 <0>         0.0000
      4 F3         -0.7317    0.2349   -1.1562 F         1 <0>         0.0000
      5 Br1        -0.8198    0.5373    1.5516 Br        1 <0>         0.0000
@<TRIPOS>BOND
     1    1    2 1
     2    1    3 1
     3    1    4 1
     4    1    5 1
@<TRIPOS>MOLECULE
chlorofluoromethane
    5     4     0     0     0
SMALL
NO_CHARGES

@<TRIPOS>ATOM
      1 C1          0.1087   -0.0108   -0.0646 C.3       1 <0>         0.0000
      2 F1         -0.6737    0.0934   -1.1682 F         1 <0>         0.0000
      3 Cl1        -0.8928    0.0735    1.3860 Cl        1 <0>         0.0000
      4 H1          0.8258    0.8132   -0.0612 H         1 <0>         0.0000
      5 H2          0.6320   -0.9694   -0.0920 H         1 <0>         0.0000
@<TRIPOS>BOND
     1    1    2 1
     2    1    3 1
     3    1    4 1
     4    1    5 1
@<TRIPOS>MOLECULE
chlorodifluoromethane
    5     4     0     0     0
SMALL
NO_CHARGES

@<TRIPOS>ATOM
      1 C1         -0.0244    0.0886    0.0514 C.3       1 <0>         0.0000
      2 F1         -1.3432   -0.2235    0.0354 F         1 <0>         0.0000
      3 F2          0.4844   -0.4007    1.2085 F         1 <0>         0.0000
      4 Cl1         0.7908   -0.6398   -1.3286 Cl        1 <0>         0.0000
      5 H1          0.0925    1.1753    0.0334 H         1 <0>         0.0000
@<TRIPOS>BOND
     1    1    2 1
     2    1    3 1
     3    1    4 1
     4    1    5 1
@<TRIPOS>MOLECULE
1-bromo-2-chloroethane
    8     7     0     0     0
SMALL
NO_CHARGES

@<TRIPOS>ATOM
      1 C1         -0.2688    0.5219    0.4902 C.3       1 <0>         0.0000
      2 C2          0.2376   -0.5482   -0.4514 C.3       1 <0>         0.0000
      3 Cl1        -1.2788   -0.2086    1.7582 Cl        1 <0>         0.0000
      4 Br1         1.2898    0.2764   -1.8674 Br        1 <0>         0.0000
      5 H1          0.5554    1.0471    0.9831 H         1 <0>         0.0000
      6 H2         -0.8793    1.2635   -0.0349 H         1 <0>         0.0000
      7 H3         -0.5770   -1.0866   -0.9437 H         1 <0>         0.0000
      8 H4          0.8974   -1.2623    0.0494 H         1 <0>         0.0000
@<TRIPOS>BOND
     1    1    2 1
     2    1    3 1
     3    2    4 1
     4    1    5 1
     5    1    6 1
     6    2    7 1
     7    2    8 1
@<TRIPOS>MOLECULE
1-chloro-2,2,2-trifluoroethane
    8     7     0     0     0
SMALL
NO_CHARGES

@<TRIPOS>ATOM
      1 C1         -0.0165    0.7148   -0.2710 C.3       1 <0>         0.0000
      2 C2          0.0300   -0.7407    0.1200 C.3       1 <0>         0.0000
      3 F1          1.0669   -1.0003    0.9443 F         1 <0>         0.0000
      4 F2          0.1408   -1.5417   -0.9608 F         1 <0>         0.0000
      5 F3         -1.1036   -1.0885    0.7699 F         1 <0>         0.0000
      6 Cl1        -0.1864    1.7495    1.1631 Cl        1 <0>         0.0000
      7 H1          0.9014    1.0065   -0.7887 H         1 <0>         0.0000
      8 H2         -0.8665    0.9120   -0.9300 H         1 <0>         0.0000
@<TRIPOS>BOND
     1    1    2 1
     2    1    6 1
     3    2    3 1
     4    2    4 1
     5    2    5 1
     6    1    7 1
     7    1    8 1
@<TRIPOS>MOLECULE
1,1,2-trichloro-1,2,2-trifluoroethane
    8     7     0     0     0
SMALL
NO_CHARGES

@<TRIPOS>ATOM
      1 C1          0.7264   -0.0219    0.2801 C.3       1 <0>         0.0000
      2 C2         -0.6579   -0.0548   -0.3579 C.3       1 <0>         0.0000
      3 F1          1.1048   -1.2900    0.5933 F         1 <0>         0.0000
      4 F2          1.6296    0.4236   -0.6339 F         1 <0>         0.0000
      5 F3         -0.5724   -0.8215   -1.4830 F         1 <0>         0.0000
      6 Cl1         0.8355    0.9881    1.7370 Cl        1 <0>         0.0000
      7 Cl2        -1.2017    1.5702   -0.8479 Cl        1 <0>         0.0000
      8 Cl3        -1.8667   -0.8018    0.7179 Cl        1 <0>         0.0000
@<TRIPOS>BOND
     1    1    2 1
     2    1    3 1
     3    1    4 1
     4    1    6 1
     5    2    5 1
     6    2    7 1
     7    2    8 1
@<TRIPOS>MOLECULE
1,1,1-trifluoro-2-propanol
   12    11     0     0     0
SMALL
NO_CHARGES

@<TRIPOS>ATOM
      1 C1         -0.7763    0.5918    0.8349 C.3       1 <0>         0.0000
      2 C2         -0.2372   -0.1769   -0.3621 C.3       1 <0>         0.0000
      3 C3         -0.0318    0.7195   -1.5646 C.3       1 <0>         0.0000
      4 O1          1.0171   -0.7582   -0.0206 O.3       1 <0>         0.0000
      5 F1         -1.2014    1.2590   -1.9727 F         1 <0>         0.0000
      6 F2          0.8032    1.7399   -1.2676 F         1 <0>         0.0000
      7 F3          0.4968    0.0430   -2.6063 F         1 <0>         0.0000
      8 H1         -0.1017    1.4088    1.1138 H         1 <0>         0.0000
      9 H2         -0.9132   -0.0628    1.7007 H         1 <0>         0.0000
     10 H3         -1.7404    1.0513    0.5914 H         1 <0>         0.0000
     11 H4         -0.9249   -0.9878   -0.6244 H         1 <0>         0.0000
     12 H5          0.8528   -1.3524    0.7284 H         1 <0>         0.0000
@<TRIPOS>BOND
     1    1    2 1
     2    2    3 1
     3    2    4 1
     4    3    5 1
     5    3    6 1
     6    3    7 1
     7    1    8 1
     8    1    9 1
     9    1   10 1
    10    2   11 1
    11    4   12 1
@<TRIPOS>MOLECULE
imidazole
    9     9     0     0     0
SMALL
NO_CHARGES

@<TRIPOS>ATOM
      1 C1          1.9499   -0.7740   -0.8259 C.2       1 <0>         0.0000
      2 C2          0.6549   -0.7784   -0.3640 C.2       1 <0>         0.0000
      3 C3          1.3133   -2.8020   -0.9371 C.2       1 <0>         0.0000
      4 N1          2.3537   -2.0366   -1.1813 N.2       1 <0>         0.0000
      5 N2          0.2603   -2.0844   -0.4416 N.pl3     1 <0>         0.0000
      6 H1          2.6117    0.0744   -0.9217 H         1 <0>         0.0000
      7 H2          0.0003   -0.0000    0.0005 H         1 <0>         0.0000
      8 H3          1.2583   -3.8695   -1.0948 H         1 <0>         0.0000
      9 H4         -0.6437   -2.4533   -0.1784 H         1 <0>         0.0000
@<TRIPOS>BOND
     1    1    2 2
     2    1    4 1
     3    2    5 1
     4    3    4 2
     5    3    5 1
     6    1    6 1
     7    2    7 1
     8    3    8 1
     9    5    9 1
@<TRIPOS>MOLECULE
pyrrole
   10    10     0     0     0
SMALL
NO_CHARGES

@<TRIPOS>ATOM
      1 C1          1.5204    0.4727    1.5759 C.2       1 <0>         0.0000
      2 C2          0.2891    0.0196    1.0414 C.2       1 <0>         0.0000
      3 C3          1.4575    0.3171    2.9431 C.2       1 <0>         0.0000
      4 C4         -0.4888   -0.3990    2.0983 C.2       1 <0>         0.0000
      5 N1          0.2315   -0.2133    3.2493 N.pl3     1 <0>         0.0000
      6 H1          2.3613    0.8687    1.0241 H         1 <0>         0.0000
      7 H2         -0.0010    0.0003    0.0004 H         1 <0>         0.0000
      8 H3          2.1729    0.5363    3.7231 H         1 <0>         0.0000
      9 H4         -1.4869   -0.8126    2.1334 H         1 <0>         0.0000
     10 H5         -0.0916   -0.4341    4.1811 H         1 <0>         0.0000
@<TRIPOS>BOND
     1    1    2 1
     2    1    3 2
     3    2    4 2
     4    3    5 1
     5    4    5 1
     6    1    6 1
     7    2    7 1
     8    3    8 1
     9    4    9 1
    10    5   10 1
@<TRIPOS>MOLECULE
1-methylpyrrole
   13    13     0     0     0
SMALL
NO_CHARGES

@<TRIPOS>ATOM
      1 C1          1.5204    0.4727    1.5759 C.2       1 <0>         0.0000
      2 C2          0.2891    0.0196    1.0414 C.2       1 <0>         0.0000
      3 C3          1.4575    0.3171    2.9431 C.2       1 <0>         0.0000
      4 C4         -0.4888   -0.3990    2.0983 C.2       1 <0>         0.0000
      5 C5         -0.2315   -0.5271    4.5817 C.3       1 <0>         0.0000
      6 N1          0.2315   -0.2133    3.2493 N.pl3     1 <0>         0.0000
      7 H1          2.3615    0.8702    1.0255 H         1 <0>         0.0000
      8 H2          0.0001    0.0001    0.0000 H         1 <0>         0.0000
      9 H3          2.1795    0.5395    3.7174 H         1 <0>         0.0000
     10 H4         -1.4887   -0.8111    2.1251 H         1 <0>         0.0000
     11 H5         -0.7320    0.3585    4.9821 H         1 <0>         0.0000
     12 H6         -0.9255   -1.3709    4.5368 H         1 <0>         0.0000
     13 H7          0.6236   -0.7996    5.2066 H         1 <0>         0.0000
@<TRIPOS>BOND
     1    1    2 1
     2    1    3 2
     3    2    4 2
     4    3    6 1
     5    4    6 1
     6    5    6 1
     7    1    7 1
     8    2    8 1
     9    3    9 1
    10    4   10 1
    11    5   11 1
    12    5   12 1
    13    5   13 1
@<TRIPOS>MOLECULE
1-methylimidazole
   12    12     0     0     0
SMALL
NO_CHARGES

@<TRIPOS>ATOM
      1 C1          1.9499   -0.7740   -0.8259 C.2       1 <0>         0.0000
      2 C2          0.6549   -0.7784   -0.3640 C.2       1 <0>         0.0000
      3 C3          1.3133   -2.8020   -0.9371 C.2       1 <0>         0.0000
      4 C4         -1.0301   -2.6104   -0.0685 C.3       1 <0>         0.0000
      5 N1          2.3537   -2.0366   -1.1813 N.2       1 <0>         0.0000
      6 N2          0.2603   -2.0844   -0.4416 N.pl3     1 <0>         0.0000
      7 H1          2.6121    0.0743   -0.9207 H         1 <0>         0.0000
      8 H2          0.0050    0.0054   -0.0008 H         1 <0>         0.0000
      9 H3          1.2636   -3.8703   -1.0975 H         1 <0>         0.0000
     10 H4         -1.6774   -2.5715   -0.9486 H         1 <0>         0.0000
     11 H5         -0.9168   -3.6416    0.2774 H         1 <0>         0.0000
     12 H6         -1.4469   -2.0048    0.7411 H         1 <0>         0.0000
@<TRIPOS>BOND
     1    1    2 2
     2    1    5 1
     3    2    6 1
     4    3    5 2
     5    3    6 1
     6    4    6 1
     7    1    7 1
     8    2    8 1
     9    3    9 1
    10    4   10 1
    11    4   11 1
    12    4   12 1
@<TRIPOS>MOLECULE
4-methyl-1-pentene
   18    17     0     0     0
SMALL
NO_CHARGES

@<TRIPOS>ATOM
      1 C1         -1.8318    3.6604   -1.2743 C.2       1 <0>         0.0000
      2 C2         -0.8775    3.0336   -1.9713 C.2       1 <0>         0.0000
      3 C3         -2.3163    1.5589   -4.1560 C.3       1 <0>         0.0000
      4 C4         -0.8268   -0.4170   -3.7736 C.3       1 <0>         0.0000
      5 C5         -0.8057    1.5439   -2.1463 C.3       1 <0>         0.0000
      6 C6         -0.9611    1.0995   -3.6130 C.3       1 <0>         0.0000
      7 H1         -1.8300    4.7415   -1.1897 H         1 <0>         0.0000
      8 H2         -2.6246    3.1119   -0.7780 H         1 <0>         0.0000
      9 H3         -0.1078    3.6302   -2.4541 H         1 <0>         0.0000
     10 H4         -3.1366    1.1088   -3.5868 H         1 <0>         0.0000
     11 H5         -2.4362    1.2625   -5.2035 H         1 <0>         0.0000
     12 H6         -2.4203    2.6477   -4.0974 H         1 <0>         0.0000
     13 H7         -1.5875   -0.9467   -3.1901 H         1 <0>         0.0000
     14 H8         -0.9444   -0.7072   -4.8233 H         1 <0>         0.0000
     15 H9          0.1574   -0.7673   -3.4471 H         1 <0>         0.0000
     16 H10         0.1346    1.1512   -1.7382 H         1 <0>         0.0000
     17 H11        -1.6117    1.1021   -1.5469 H         1 <0>         0.0000
     18 H12        -0.1781    1.5775   -4.2160 H         1 <0>         0.0000
@<TRIPOS>BOND
     1    1    2 2
     2    2    5 1
     3    3    6 1
     4    4    6 1
     5    5    6 1
     6    1    7 1
     7    1    8 1
     8    2    9 1
     9    3   10 1
    10    3   11 1
    11    3   12 1
    12    4   13 1
    13    4   14 1
    14    4   15 1
    15    5   16 1
    16    5   17 1
    17    6   18 1
@<TRIPOS>MOLECULE
E-2-pentene
   15    14     0     0     0
SMALL
NO_CHARGES

@<TRIPOS>ATOM
      1 C1          1.5643   -0.6624    1.2357 C.2       1 <0>         0.0000
      2 C2          0.8257    0.2886    0.6459 C.2       1 <0>         0.0000
      3 C3          1.3215   -2.1259    1.0696 C.3       1 <0>         0.0000
      4 C4          0.3002    2.3248    1.9896 C.3       1 <0>         0.0000
      5 C5          1.0743    1.7589    0.8093 C.3       1 <0>         0.0000
      6 H1          2.3932   -0.3774    1.8782 H         1 <0>         0.0000
      7 H2          0.0000    0.0000    0.0000 H         1 <0>         0.0000
      8 H3          0.6278   -2.4781    1.8391 H         1 <0>         0.0000
      9 H4          2.2430   -2.7115    1.1472 H         1 <0>         0.0000
     10 H5          0.8755   -2.3204    0.0895 H         1 <0>         0.0000
     11 H6          0.5990    1.8210    2.9143 H         1 <0>         0.0000
     12 H7         -0.7781    2.1830    1.8599 H         1 <0>         0.0000
     13 H8          0.4909    3.3964    2.1125 H         1 <0>         0.0000
     14 H9          0.7652    2.2720   -0.1085 H         1 <0>         0.0000
     15 H10         2.1421    1.9657    0.9461 H         1 <0>         0.0000
@<TRIPOS>BOND
     1    1    2 2
     2    1    3 1
     3    2    5 1
     4    4    5 1
     5    1    6 1
     6    2    7 1
     7    3    8 1
     8    3    9 1
     9    3   10 1
    10    4   11 1
    11    4   12 1
    12    4   13 1
    13    5   14 1
    14    5   15 1
@<TRIPOS>MOLECULE
E-2-pentene
   15    14     0     0     0
SMALL
NO_CHARGES

@<TRIPOS>ATOM
      1 C1          1.5643   -0.6624    1.2357 C.2       1 <0>         0.0000
      2 C2          0.8257    0.2886    0.6459 C.2       1 <0>         0.0000
      3 C3          1.3215   -2.1259    1.0696 C.3       1 <0>         0.0000
      4 C4          0.3002    2.3248    1.9896 C.3       1 <0>         0.0000
      5 C5          1.0743    1.7589    0.8093 C.3       1 <0>         0.0000
      6 H1          2.3932   -0.3774    1.8782 H         1 <0>         0.0000
      7 H2          0.0000    0.0000    0.0000 H         1 <0>         0.0000
      8 H3          0.6278   -2.4781    1.8391 H         1 <0>         0.0000
      9 H4          2.2430   -2.7115    1.1472 H         1 <0>         0.0000
     10 H5          0.8755   -2.3204    0.0895 H         1 <0>         0.0000
     11 H6          0.5990    1.8210    2.9143 H         1 <0>         0.0000
     12 H7         -0.7781    2.1830    1.8599 H         1 <0>         0.0000
     13 H8          0.4909    3.3964    2.1125 H         1 <0>         0.0000
     14 H9          0.7652    2.2720   -0.1085 H         1 <0>         0.0000
     15 H10         2.1421    1.9657    0.9461 H         1 <0>         0.0000
@<TRIPOS>BOND
     1    1    2 2
     2    1    3 1
     3    2    5 1
     4    4    5 1
     5    1    6 1
     6    2    7 1
     7    3    8 1
     8    3    9 1
     9    3   10 1
    10    4   11 1
    11    4   12 1
    12    4   13 1
    13    5   14 1
    14    5   15 1
@<TRIPOS>MOLECULE
1-nonyne
   25    24     0     0     0
SMALL
NO_CHARGES

@<TRIPOS>ATOM
      1 C1          1.5679    2.8897   -4.6460 C.1       1 <0>         0.0000
      2 C2          1.5730    2.2925   -3.6044 C.1       1 <0>         0.0000
      3 C3         -2.7567   -1.6189    3.0796 C.3       1 <0>         0.0000
      4 C4          1.5853    1.5615   -2.3295 C.3       1 <0>         0.0000
      5 C5         -2.7480   -0.8544    1.7645 C.3       1 <0>         0.0000
      6 C6          0.1753    1.2792   -1.8074 C.3       1 <0>         0.0000
      7 C7         -1.3211   -0.6039    1.2751 C.3       1 <0>         0.0000
      8 C8          0.1722    0.4553   -0.5140 C.3       1 <0>         0.0000
      9 C9         -1.2551    0.2258   -0.0102 C.3       1 <0>         0.0000
     10 H1          1.5625    3.4196   -5.5698 H         1 <0>         0.0000
     11 H2         -2.2430   -2.5803    2.9778 H         1 <0>         0.0000
     12 H3         -2.2617   -1.0460    3.8703 H         1 <0>         0.0000
     13 H4         -3.7857   -1.8153    3.3968 H         1 <0>         0.0000
     14 H5          2.1578    2.1213   -1.5811 H         1 <0>         0.0000
     15 H6          2.1039    0.6063   -2.4745 H         1 <0>         0.0000
     16 H7         -3.2686    0.1005    1.9008 H         1 <0>         0.0000
     17 H8         -3.3103   -1.4304    1.0219 H         1 <0>         0.0000
     18 H9         -0.3616    2.2227   -1.6463 H         1 <0>         0.0000
     19 H10        -0.3746    0.7271   -2.5799 H         1 <0>         0.0000
     20 H11        -0.8083   -1.5612    1.1217 H         1 <0>         0.0000
     21 H12        -0.7641   -0.0697    2.0549 H         1 <0>         0.0000
     22 H13         0.6623   -0.5064   -0.7023 H         1 <0>         0.0000
     23 H14         0.7512    0.9708    0.2608 H         1 <0>         0.0000
     24 H15        -1.7255    1.1972    0.1864 H         1 <0>         0.0000
     25 H16        -1.8505   -0.2606   -0.7924 H         1 <0>         0.0000
@<TRIPOS>BOND
     1    1    2 3
     2    2    4 1
     3    3    5 1
     4    4    6 1
     5    5    7 1
     6    6    8 1
     7    7    9 1
     8    8    9 1
     9    1   10 1
    10    3   11 1
    11    3   12 1
    12    3   13 1
    13    4   14 1
    14    4   15 1
    15    5   16 1
    16    5   17 1
    17    6   18 1
    18    6   19 1
    19    7   20 1
    20    7   21 1
    21    8   22 1
    22    8   23 1
    23    9   24 1
    24    9   25 1
@<TRIPOS>MOLECULE
acetylene
    4     3     0     0     0
SMALL
NO_CHARGES

@<TRIPOS>ATOM
      1 C1         -0.4269   -0.1656    0.3877 C.1       1 <0>         0.0000
      2 C2          0.4269    0.1654   -0.3877 C.1       1 <0>         0.0000
      3 H1         -1.1845   -0.4595    1.0759 H         1 <0>         0.0000
      4 H2          1.1845    0.4597   -1.0760 H         1 <0>         0.0000
@<TRIPOS>BOND
     1    1    2 3
     2    1    3 1
     3    2    4 1
@<TRIPOS>MOLECULE
4-methylimidazole
   12    12     0     0     0
SMALL
NO_CHARGES

@<TRIPOS>ATOM
      1 C1          0.6549   -0.7784   -0.3640 C.2       1 <0>         0.0000
      2 C2          1.3133   -2.8020   -0.9371 C.2       1 <0>         0.0000
      3 C3          1.9499   -0.7740   -0.8259 C.2       1 <0>         0.0000
      4 C4          2.8640    0.3704   -0.9623 C.3       1 <0>         0.0000
      5 N1          2.3537   -2.0366   -1.1813 N.2       1 <0>         0.0000
      6 N2          0.2603   -2.0844   -0.4416 N.pl3     1 <0>         0.0000
      7 H1         -0.0017   -0.0013    0.0001 H         1 <0>         0.0000
      8 H2          1.2572   -3.8698   -1.0946 H         1 <0>         0.0000
      9 H3          3.4559    0.5244   -0.0429 H         1 <0>         0.0000
     10 H4          3.5771    0.2399   -1.7967 H         1 <0>         0.0000
     11 H5          2.3263    1.3133   -1.1715 H         1 <0>         0.0000
     12 H6         -0.6443   -2.4529   -0.1796 H         1 <0>         0.0000
@<TRIPOS>BOND
     1    1    3 2
     2    1    6 1
     3    2    5 2
     4    2    6 1
     5    3    4 1
     6    3    5 1
     7    1    7 1
     8    2    8 1
     9    4    9 1
    10    4   10 1
    11    4   11 1
    12    6   12 1
@<TRIPOS>MOLECULE
chloropentafluoroethane
    8     7     0     0     0
SMALL
NO_CHARGES

@<TRIPOS>ATOM
      1 C1         -0.5334    0.0640    0.5454 C.3       1 <0>         0.0000
      2 C2          0.4747   -0.0268   -0.5690 C.3       1 <0>         0.0000
      3 F1         -0.9400   -1.1599    0.9447 F         1 <0>         0.0000
      4 F2         -0.0258    0.7052    1.6197 F         1 <0>         0.0000
      5 F3         -1.6271    0.7467    0.1407 F         1 <0>         0.0000
      6 F4         -0.0824   -0.6627   -1.6297 F         1 <0>         0.0000
      7 F5          1.5258   -0.7833   -0.1652 F         1 <0>         0.0000
      8 Cl1         1.0487    1.5702   -1.0679 Cl        1 <0>         0.0000
@<TRIPOS>BOND
     1    1    2 1
     2    1    3 1
     3    1    4 1
     4    1    5 1
     5    2    6 1
     6    2    7 1
     7    2    8 1
@<TRIPOS>MOLECULE
chlorotrifluoromethane
    5     4     0     0     0
SMALL
NO_CHARGES

@<TRIPOS>ATOM
      1 C1          0.0316   -0.0143   -0.0450 C.3       1 <0>         0.0000
      2 F1          1.2057    0.6576   -0.0528 F         1 <0>         0.0000
      3 F2          0.3156   -1.3369   -0.0446 F         1 <0>         0.0000
      4 F3         -0.6099    0.2673   -1.2023 F         1 <0>         0.0000
      5 Cl1        -0.9430    0.4263    1.3447 Cl        1 <0>         0.0000
@<TRIPOS>BOND
     1    1    2 1
     2    1    3 1
     3    1    4 1
     4    1    5 1
@<TRIPOS>MOLECULE
1,1-dichloro-tetrafluoroethane
    8     7     0     0     0
SMALL
NO_CHARGES

@<TRIPOS>ATOM
      1 C1          0.1884    0.3868    0.6544 C.3       1 <0>         0.0000
      2 C2         -0.1430   -0.3081   -0.6477 C.3       1 <0>         0.0000
      3 F1         -0.2768   -0.2959    1.7231 F         1 <0>         0.0000
      4 F2          1.5250    0.5240    0.8057 F         1 <0>         0.0000
      5 F3         -0.3492    1.6266    0.6939 F         1 <0>         0.0000
      6 F4         -1.4963   -0.4098   -0.7467 F         1 <0>         0.0000
      7 Cl1         0.5540   -1.9439   -0.6812 Cl        1 <0>         0.0000
      8 Cl2         0.4581    0.6329   -2.0319 Cl        1 <0>         0.0000
@<TRIPOS>BOND
     1    1    2 1
     2    1    3 1
     3    1    4 1
     4    1    5 1
     5    2    6 1
     6    2    7 1
     7    2    8 1
@<TRIPOS>MOLECULE
1,2-dichloro-tetrafluoroethane
    8     7     0     0     0
SMALL
NO_CHARGES

@<TRIPOS>ATOM
      1 C1          0.6391   -0.3759   -0.1653 C.3       1 <0>         0.0000
      2 C2         -0.5745    0.4580    0.1927 C.3       1 <0>         0.0000
      3 F1          1.6969    0.0543    0.5721 F         1 <0>         0.0000
      4 F2          0.9710   -0.1751   -1.4658 F         1 <0>         0.0000
      5 F3         -0.8549    0.3233    1.5136 F         1 <0>         0.0000
      6 F4         -0.2766    1.7695   -0.0051 F         1 <0>         0.0000
      7 Cl1         0.4013   -2.1068    0.1318 Cl        1 <0>         0.0000
      8 Cl2        -2.0054    0.0458   -0.7685 Cl        1 <0>         0.0000
@<TRIPOS>BOND
     1    1    2 1
     2    1    3 1
     3    1    4 1
     4    1    7 1
     5    2    5 1
     6    2    6 1
     7    2    8 1
@<TRIPOS>MOLECULE
dichlorodifluoromethane
    5     4     0     0     0
SMALL
NO_CHARGES

@<TRIPOS>ATOM
      1 C1          0.0627   -0.0330    0.0166 C.3       1 <0>         0.0000
      2 F1          1.2157    0.5657    0.4112 F         1 <0>         0.0000
      3 F2          0.3076   -1.3684   -0.0057 F         1 <0>         0.0000
      4 Cl1        -0.3690    0.5190   -1.6038 Cl        1 <0>         0.0000
      5 Cl2        -1.2170    0.3167    1.1816 Cl        1 <0>         0.0000
@<TRIPOS>BOND
     1    1    2 1
     2    1    3 1
     3    1    4 1
     4    1    5 1
@<TRIPOS>MOLECULE
1,1,2,2-tetrachloro-difluoroethane
    8     7     0     0     0
SMALL
NO_CHARGES

@<TRIPOS>ATOM
      1 C1          0.7349   -0.1284    0.1881 C.3       1 <0>         0.0000
      2 C2         -0.7402    0.0203   -0.2090 C.3       1 <0>         0.0000
      3 F1          1.2698   -1.1531   -0.5365 F         1 <0>         0.0000
      4 F2         -1.3772   -1.1532    0.0714 F         1 <0>         0.0000
      5 Cl1         0.9023   -0.5578    1.9172 Cl        1 <0>         0.0000
      6 Cl2         1.7008    1.3386   -0.1396 Cl        1 <0>         0.0000
      7 Cl3        -1.5773    1.3253    0.6793 Cl        1 <0>         0.0000
      8 Cl4        -0.9141    0.3112   -1.9660 Cl        1 <0>         0.0000
@<TRIPOS>BOND
     1    1    2 1
     2    1    3 1
     3    1    5 1
     4    1    6 1
     5    2    4 1
     6    2    7 1
     7    2    8 1
@<TRIPOS>MOLECULE
trifluoromethane
    5     4     0     0     0
SMALL
NO_CHARGES

@<TRIPOS>ATOM
      1 C1          0.0019    0.0536   -0.0476 C.3       1 <0>         0.0000
      2 F1         -0.9525   -0.8459   -0.3681 F         1 <0>         0.0000
      3 F2         -0.2641    0.5166    1.1923 F         1 <0>         0.0000
      4 F3          1.1851   -0.5948   -0.0035 F         1 <0>         0.0000
      5 H1          0.0296    0.8705   -0.7731 H         1 <0>         0.0000
@<TRIPOS>BOND
     1    1    2 1
     2    1    3 1
     3    1    4 1
     4    1    5 1
@<TRIPOS>MOLECULE
phosphine
    4     3     0     0     0
SMALL
NO_CHARGES

@<TRIPOS>ATOM
      1 P1         -0.2580   -0.0132   -0.5002 P.3       1 <0>         0.0000
      2 H1         -0.8901    0.4995    0.6570 H         1 <0>         0.0000
      3 H2          0.9451    0.7025   -0.2951 H         1 <0>         0.0000
      4 H3          0.2030   -1.1888    0.1383 H         1 <0>         0.0000
@<TRIPOS>BOND
     1    1    2 1
     2    1    3 1
     3    1    4 1
@<TRIPOS>MOLECULE
1-bromo-3-methylbutane
   17    16     0     0     0
SMALL
NO_CHARGES

@<TRIPOS>ATOM
      1 C1         -1.8444    0.6317    0.0310 C.3       1 <0>         0.0000
      2 C2         -0.5425   -1.4965    0.2271 C.3       1 <0>         0.0000
      3 C3          0.6621    0.7503    0.1663 C.3       1 <0>         0.0000
      4 C4          0.7164    2.1482   -0.4310 C.3       1 <0>         0.0000
      5 C5         -0.5370   -0.0745   -0.3361 C.3       1 <0>         0.0000
      6 Br1         2.2306    3.1223    0.3164 Br        1 <0>         0.0000
      7 H1         -1.9462    0.7226    1.1176 H         1 <0>         0.0000
      8 H2         -2.7132    0.0816   -0.3465 H         1 <0>         0.0000
      9 H3         -1.8731    1.6420   -0.3911 H         1 <0>         0.0000
     10 H4         -0.5929   -1.4900    1.3213 H         1 <0>         0.0000
     11 H5          0.3555   -2.0464   -0.0703 H         1 <0>         0.0000
     12 H6         -1.4051   -2.0586   -0.1472 H         1 <0>         0.0000
     13 H7          0.6026    0.8277    1.2601 H         1 <0>         0.0000
     14 H8          1.5966    0.2170   -0.0526 H         1 <0>         0.0000
     15 H9         -0.1767    2.7317   -0.1922 H         1 <0>         0.0000
     16 H10         0.8723    2.1367   -1.5124 H         1 <0>         0.0000
     17 H11        -0.4858   -0.1388   -1.4304 H         1 <0>         0.0000
@<TRIPOS>BOND
     1    1    5 1
     2    2    5 1
     3    3    4 1
     4    3    5 1
     5    4    6 1
     6    1    7 1
     7    1    8 1
     8    1    9 1
     9    2   10 1
    10    2   11 1
    11    2   12 1
    12    3   13 1
    13    3   14 1
    14    4   15 1
    15    4   16 1
    16    5   17 1
@<TRIPOS>MOLECULE
2-chloropentane
   17    16     0     0     0
SMALL
NO_CHARGES

@<TRIPOS>ATOM
      1 C1          0.6556   -2.0449   -1.3672 C.3       1 <0>         0.0000
      2 C2         -1.1257    2.1027    0.8761 C.3       1 <0>         0.0000
      3 C3          0.7968   -1.1323   -0.1582 C.3       1 <0>         0.0000
      4 C4         -0.1546    0.0647   -0.2493 C.3       1 <0>         0.0000
      5 C5         -0.1084    0.9730    0.9866 C.3       1 <0>         0.0000
      6 Cl1         1.5204    1.6824    1.2030 Cl        1 <0>         0.0000
      7 H1          0.8642   -1.4899   -2.2872 H         1 <0>         0.0000
      8 H2          1.3569   -2.8836   -1.3104 H         1 <0>         0.0000
      9 H3         -0.3595   -2.4489   -1.4366 H         1 <0>         0.0000
     10 H4         -0.9435    2.7106   -0.0168 H         1 <0>         0.0000
     11 H5         -2.1500    1.7177    0.8222 H         1 <0>         0.0000
     12 H6         -1.0618    2.7658    1.7455 H         1 <0>         0.0000
     13 H7          0.5841   -1.7068    0.7509 H         1 <0>         0.0000
     14 H8          1.8367   -0.7950   -0.0943 H         1 <0>         0.0000
     15 H9          0.0716    0.6461   -1.1524 H         1 <0>         0.0000
     16 H10        -1.1782   -0.3133   -0.3701 H         1 <0>         0.0000
     17 H11        -0.3200    0.3875    1.8878 H         1 <0>         0.0000
@<TRIPOS>BOND
     1    1    3 1
     2    2    5 1
     3    3    4 1
     4    4    5 1
     5    5    6 1
     6    1    7 1
     7    1    8 1
     8    1    9 1
     9    2   10 1
    10    2   11 1
    11    2   12 1
    12    3   13 1
    13    3   14 1
    14    4   15 1
    15    4   16 1
    16    5   17 1
@<TRIPOS>MOLECULE
3-chloropentane
   17    16     0     0     0
SMALL
NO_CHARGES

@<TRIPOS>ATOM
      1 C1         -0.6509   -0.8321   -2.7265 C.3       1 <0>         0.0000
      2 C2         -0.5775    0.0237    2.3438 C.3       1 <0>         0.0000
      3 C3          0.1497   -0.4660   -1.4829 C.3       1 <0>         0.0000
      4 C4          0.2088   -0.0268    1.0392 C.3       1 <0>         0.0000
      5 C5         -0.6512   -0.4112   -0.1725 C.3       1 <0>         0.0000
      6 Cl1        -2.0460    0.7017   -0.3417 Cl        1 <0>         0.0000
      7 H1         -1.4798   -0.1279   -2.8539 H         1 <0>         0.0000
      8 H2         -0.0388   -0.7894   -3.6318 H         1 <0>         0.0000
      9 H3         -1.0816   -1.8344   -2.6451 H         1 <0>         0.0000
     10 H4         -1.3989    0.7444    2.2946 H         1 <0>         0.0000
     11 H5          0.0800    0.3259    3.1655 H         1 <0>         0.0000
     12 H6         -0.9934   -0.9587    2.5889 H         1 <0>         0.0000
     13 H7          0.9740   -1.1820   -1.3730 H         1 <0>         0.0000
     14 H8          0.6167    0.5127   -1.6508 H         1 <0>         0.0000
     15 H9          1.0122   -0.7644    1.1565 H         1 <0>         0.0000
     16 H10         0.6906    0.9452    0.8813 H         1 <0>         0.0000
     17 H11        -1.0830   -1.4043   -0.0029 H         1 <0>         0.0000
@<TRIPOS>BOND
     1    1    3 1
     2    2    4 1
     3    3    5 1
     4    4    5 1
     5    5    6 1
     6    1    7 1
     7    1    8 1
     8    1    9 1
     9    2   10 1
    10    2   11 1
    11    2   12 1
    12    3   13 1
    13    3   14 1
    14    4   15 1
    15    4   16 1
    16    5   17 1
@<TRIPOS>MOLECULE
butenyne
    8     7     0     0     0
SMALL
NO_CHARGES

@<TRIPOS>ATOM
      1 C1         -1.8367   -1.7409    2.0576 C.1       1 <0>         0.0000
      2 C2         -1.2099   -1.1647    1.2111 C.1       1 <0>         0.0000
      3 C3         -0.5831   -0.7747   -1.0828 C.2       1 <0>         0.0000
      4 C4         -0.4648   -0.4796    0.2154 C.2       1 <0>         0.0000
      5 H1         -2.3924   -2.2528    2.8081 H         1 <0>         0.0000
      6 H2         -0.0147   -0.2525   -1.8455 H         1 <0>         0.0000
      7 H3         -1.2623   -1.5564   -1.4060 H         1 <0>         0.0000
      8 H4          0.2171    0.3036    0.5295 H         1 <0>         0.0000
@<TRIPOS>BOND
     1    1    2 3
     2    2    4 1
     3    3    4 2
     4    1    5 1
     5    3    6 1
     6    3    7 1
     7    4    8 1
@<TRIPOS>MOLECULE
tert-amylbenzene
   27    27     0     0     0
SMALL
NO_CHARGES

@<TRIPOS>ATOM
      1 C1          5.6325    4.5440    1.3490 C.ar      1 <0>         0.0000
      2 C2          5.2926    4.2784    0.0225 C.ar      1 <0>         0.0000
      3 C3          5.2119    3.6830    2.3626 C.ar      1 <0>         0.0000
      4 C4          4.5320    3.1518   -0.2903 C.ar      1 <0>         0.0000
      5 C5          4.4512    2.5564    2.0498 C.ar      1 <0>         0.0000
      6 C6          4.1113    2.2908    0.7233 C.ar      1 <0>         0.0000
      7 C7          1.3225    1.6588    1.8172 C.3       1 <0>         0.0000
      8 C8          1.3189    2.4097   -0.5617 C.3       1 <0>         0.0000
      9 C9          0.9967   -0.0137   -0.0050 C.3       1 <0>         0.0000
     10 C10         3.2859    1.0686    0.3846 C.3       1 <0>         0.0000
     11 C11         1.7450    1.2732    0.3837 C.3       1 <0>         0.0000
     12 H1          6.2259    5.4205    1.5923 H         1 <0>         0.0000
     13 H2          5.6209    4.9481   -0.7669 H         1 <0>         0.0000
     14 H3          5.4773    3.8889    3.3953 H         1 <0>         0.0000
     15 H4          4.2717    2.9529   -1.3266 H         1 <0>         0.0000
     16 H5          4.1278    1.8913    2.8461 H         1 <0>         0.0000
     17 H6          1.6033    0.8802    2.5355 H         1 <0>         0.0000
     18 H7          1.8009    2.5918    2.1363 H         1 <0>         0.0000
     19 H8          0.2382    1.8019    1.8854 H         1 <0>         0.0000
     20 H9          1.5959    2.1870   -1.5981 H         1 <0>         0.0000
     21 H10         0.2383    2.5826   -0.5279 H         1 <0>         0.0000
     22 H11         1.8033    3.3535   -0.2853 H         1 <0>         0.0000
     23 H12         1.2627   -0.3321   -1.0197 H         1 <0>         0.0000
     24 H13         1.2412   -0.8443    0.6653 H         1 <0>         0.0000
     25 H14        -0.0882    0.1364    0.0204 H         1 <0>         0.0000
     26 H15         3.5434    0.2662    1.0908 H         1 <0>         0.0000
     27 H16         3.6016    0.6954   -0.6002 H         1 <0>         0.0000
@<TRIPOS>BOND
     1    1    2 ar
     2    1    3 ar
     3    2    4 ar
     4    3    5 ar
     5    4    6 ar
     6    5    6 ar
     7    6   10 1
     8    7   11 1
     9    8   11 1
    10    9   11 1
    11   10   11 1
    12    1   12 1
    13    2   13 1
    14    3   14 1
    15    4   15 1
    16    5   16 1
    17    7   17 1
    18    7   18 1
    19    7   19 1
    20    8   20 1
    21    8   21 1
    22    8   22 1
    23    9   23 1
    24    9   24 1
    25    9   25 1
    26   10   26 1
    27   10   27 1
@<TRIPOS>MOLECULE
1,1-dichlorobutane
   14    13     0     0     0
SMALL
NO_CHARGES

@<TRIPOS>ATOM
      1 C1          0.2838    0.7459    1.8012 C.3       1 <0>         0.0000
      2 C2          0.4425    0.5735    0.2971 C.3       1 <0>         0.0000
      3 C3         -0.4452   -0.5621   -0.2266 C.3       1 <0>         0.0000
      4 C4         -0.4087   -0.7849   -1.7420 C.3       1 <0>         0.0000
      5 Cl1         1.2173   -1.2368   -2.3097 Cl        1 <0>         0.0000
      6 Cl2        -0.9897    0.6397   -2.6386 Cl        1 <0>         0.0000
      7 H1          0.5351   -0.1858    2.3177 H         1 <0>         0.0000
      8 H2         -0.7467    1.0101    2.0593 H         1 <0>         0.0000
      9 H3          0.9457    1.5322    2.1779 H         1 <0>         0.0000
     10 H4          0.1848    1.5192   -0.1913 H         1 <0>         0.0000
     11 H5          1.4962    0.3699    0.0787 H         1 <0>         0.0000
     12 H6         -0.1557   -1.4964    0.2723 H         1 <0>         0.0000
     13 H7         -1.4831   -0.3676    0.0742 H         1 <0>         0.0000
     14 H8         -1.0744   -1.6132   -2.0020 H         1 <0>         0.0000
@<TRIPOS>BOND
     1    1    2 1
     2    2    3 1
     3    3    4 1
     4    4    5 1
     5    4    6 1
     6    1    7 1
     7    1    8 1
     8    1    9 1
     9    2   10 1
    10    2   11 1
    11    3   12 1
    12    3   13 1
    13    4   14 1
@<TRIPOS>MOLECULE
o-bromocumene
   21    21     0     0     0
SMALL
NO_CHARGES

@<TRIPOS>ATOM
      1 C1          1.8851   -1.0363   -0.1124 C.ar      1 <0>         0.0000
      2 C2          0.8066   -0.4630    0.5610 C.ar      1 <0>         0.0000
      3 C3          2.9210   -1.6309    0.6081 C.ar      1 <0>         0.0000
      4 C4          0.7638   -0.4841    1.9551 C.ar      1 <0>         0.0000
      5 C5          2.8783   -1.6520    2.0022 C.ar      1 <0>         0.0000
      6 C6          1.7997   -1.0786    2.6757 C.ar      1 <0>         0.0000
      7 C7          5.3534   -1.5926    2.4753 C.3       1 <0>         0.0000
      8 C8          4.1362   -3.7990    2.4049 C.3       1 <0>         0.0000
      9 C9          4.0107   -2.3001    2.7314 C.3       1 <0>         0.0000
     10 Br1         1.6983   -1.0797    4.5695 Br        1 <0>         0.0000
     11 H1          1.9181   -1.0197   -1.1976 H         1 <0>         0.0000
     12 H2          0.0002   -0.0003   -0.0003 H         1 <0>         0.0000
     13 H3          3.7564   -2.0745    0.0730 H         1 <0>         0.0000
     14 H4         -0.0850   -0.0321    2.4623 H         1 <0>         0.0000
     15 H5          5.6182   -1.6009    1.4123 H         1 <0>         0.0000
     16 H6          6.1693   -2.0748    3.0247 H         1 <0>         0.0000
     17 H7          5.3036   -0.5468    2.7986 H         1 <0>         0.0000
     18 H8          4.3128   -3.9447    1.3333 H         1 <0>         0.0000
     19 H9          3.2231   -4.3427    2.6709 H         1 <0>         0.0000
     20 H10         4.9681   -4.2623    2.9466 H         1 <0>         0.0000
     21 H11         3.8352   -2.2382    3.8212 H         1 <0>         0.0000
@<TRIPOS>BOND
     1    1    2 ar
     2    1    3 ar
     3    2    4 ar
     4    3    5 ar
     5    4    6 ar
     6    5    6 ar
     7    5    9 1
     8    6   10 1
     9    7    9 1
    10    8    9 1
    11    1   11 1
    12    2   12 1
    13    3   13 1
    14    4   14 1
    15    7   15 1
    16    7   16 1
    17    7   17 1
    18    8   18 1
    19    8   19 1
    20    8   20 1
    21    9   21 1
@<TRIPOS>MOLECULE
(CH3)3P
   13    12     0     0     0
SMALL
NO_CHARGES

@<TRIPOS>ATOM
      1 C1         -0.4724   -0.1904    0.9682 C.3       1 <0>         0.0000
      2 C2          1.8491    0.9716    2.0452 C.3       1 <0>         0.0000
      3 C3          1.7921   -1.7784    1.4688 C.3       1 <0>         0.0000
      4 P1          0.7697   -0.4920    2.2841 P.3       1 <0>         0.0000
      5 H1         -1.2221   -0.9862    0.9573 H         1 <0>         0.0000
      6 H2          0.0100   -0.1572   -0.0127 H         1 <0>         0.0000
      7 H3         -0.9828    0.7624    1.1345 H         1 <0>         0.0000
      8 H4          2.6729    0.9634    2.7642 H         1 <0>         0.0000
      9 H5          1.2787    1.8943    2.1843 H         1 <0>         0.0000
     10 H6          2.2715    0.9755    1.0365 H         1 <0>         0.0000
     11 H7          2.6094   -2.0923    2.1238 H         1 <0>         0.0000
     12 H8          2.2224   -1.3932    0.5402 H         1 <0>         0.0000
     13 H9          1.1847   -2.6560    1.2301 H         1 <0>         0.0000
@<TRIPOS>BOND
     1    1    4 1
     2    2    4 1
     3    3    4 1
     4    1    5 1
     5    1    6 1
     6    1    7 1
     7    2    8 1
     8    2    9 1
     9    2   10 1
    10    3   11 1
    11    3   12 1
    12    3   13 1
@<TRIPOS>MOLECULE
1-bromo-2-ethylbenzene
   18    18     0     0     0
SMALL
NO_CHARGES

@<TRIPOS>ATOM
      1 C1          1.8851   -1.0363   -0.1124 C.ar      1 <0>         0.0000
      2 C2          0.8066   -0.4630    0.5610 C.ar      1 <0>         0.0000
      3 C3          2.9210   -1.6309    0.6081 C.ar      1 <0>         0.0000
      4 C4          0.7638   -0.4841    1.9551 C.ar      1 <0>         0.0000
      5 C5          2.8783   -1.6520    2.0022 C.ar      1 <0>         0.0000
      6 C6          1.7997   -1.0786    2.6757 C.ar      1 <0>         0.0000
      7 C7          4.9726   -1.2784    3.3291 C.3       1 <0>         0.0000
      8 C8          4.0107   -2.3001    2.7314 C.3       1 <0>         0.0000
      9 Br1         1.6983   -1.0797    4.5695 Br        1 <0>         0.0000
     10 H1          1.9181   -1.0197   -1.1976 H         1 <0>         0.0000
     11 H2          0.0002   -0.0003   -0.0003 H         1 <0>         0.0000
     12 H3          3.7564   -2.0745    0.0730 H         1 <0>         0.0000
     13 H4         -0.0850   -0.0321    2.4623 H         1 <0>         0.0000
     14 H5          5.3748   -0.6162    2.5549 H         1 <0>         0.0000
     15 H6          5.8143   -1.7805    3.8164 H         1 <0>         0.0000
     16 H7          4.4704   -0.6551    4.0767 H         1 <0>         0.0000
     17 H8          3.6258   -2.9479    3.5338 H         1 <0>         0.0000
     18 H9          4.5660   -2.9684    2.0555 H         1 <0>         0.0000
@<TRIPOS>BOND
     1    1    2 ar
     2    1    3 ar
     3    2    4 ar
     4    3    5 ar
     5    4    6 ar
     6    5    6 ar
     7    5    8 1
     8    6    9 1
     9    7    8 1
    10    1   10 1
    11    2   11 1
    12    3   12 1
    13    4   13 1
    14    7   14 1
    15    7   15 1
    16    7   16 1
    17    8   17 1
    18    8   18 1
@<TRIPOS>MOLECULE
1,2-dichloropropane
   11    10     0     0     0
SMALL
NO_CHARGES

@<TRIPOS>ATOM
      1 C1          0.8719   -0.5290    0.4006 C.3       1 <0>         0.0000
      2 C2          2.5540   -0.5610    2.3257 C.3       1 <0>         0.0000
      3 C3          1.2565    0.0257    1.7670 C.3       1 <0>         0.0000
      4 Cl1         2.5040   -2.3281    2.5464 Cl        1 <0>         0.0000
      5 Cl2        -0.0979   -0.2068    2.9138 Cl        1 <0>         0.0000
      6 H1          0.7259   -1.6139    0.4186 H         1 <0>         0.0000
      7 H2         -0.0613   -0.0759    0.0481 H         1 <0>         0.0000
      8 H3          1.6476   -0.3036   -0.3389 H         1 <0>         0.0000
      9 H4          3.3873   -0.3470    1.6488 H         1 <0>         0.0000
     10 H5          2.7940   -0.1176    3.2976 H         1 <0>         0.0000
     11 H6          1.3857    1.1097    1.6751 H         1 <0>         0.0000
@<TRIPOS>BOND
     1    1    3 1
     2    2    3 1
     3    2    4 1
     4    3    5 1
     5    1    6 1
     6    1    7 1
     7    1    8 1
     8    2    9 1
     9    2   10 1
    10    3   11 1
@<TRIPOS>MOLECULE
hexachloroethane
    8     7     0     0     0
SMALL
NO_CHARGES

@<TRIPOS>ATOM
      1 C1         -0.2055    0.3634    0.6554 C.3       1 <0>         0.0000
      2 C2          0.2057   -0.3634   -0.6555 C.3       1 <0>         0.0000
      3 Cl1        -1.1667   -0.7092    1.7440 Cl        1 <0>         0.0000
      4 Cl2         1.2328    0.9179    1.5951 Cl        1 <0>         0.0000
      5 Cl3        -1.2156    1.8229    0.3250 Cl        1 <0>         0.0000
      6 Cl4        -1.2328   -0.9176   -1.5950 Cl        1 <0>         0.0000
      7 Cl5         1.2157   -1.8227   -0.3249 Cl        1 <0>         0.0000
      8 Cl6         1.1669    0.7092   -1.7441 Cl        1 <0>         0.0000
@<TRIPOS>BOND
     1    1    2 1
     2    1    3 1
     3    1    4 1
     4    1    5 1
     5    2    6 1
     6    2    7 1
     7    2    8 1
@<TRIPOS>MOLECULE
ethylpropyl ether
   18    17     0     0     0
SMALL
NO_CHARGES

@<TRIPOS>ATOM
      1 C1         -0.0095   -0.6551    0.8768 C.3       1 <0>         0.0000
      2 C2          3.8322   -1.5865    5.5575 C.3       1 <0>         0.0000
      3 C3          1.2444   -0.4434    1.7060 C.3       1 <0>         0.0000
      4 C4          2.5499   -1.9092    4.8204 C.3       1 <0>         0.0000
      5 C5          1.2749   -1.3494    2.9273 C.3       1 <0>         0.0000
      6 O1          2.4629   -1.0899    3.6622 O.3       1 <0>         0.0000
      7 H1         -0.0920   -1.6965    0.5497 H         1 <0>         0.0000
      8 H2         -0.8996   -0.4128    1.4659 H         1 <0>         0.0000
      9 H3         -0.0053   -0.0150   -0.0111 H         1 <0>         0.0000
     10 H4          4.7042   -1.7804    4.9267 H         1 <0>         0.0000
     11 H5          3.8459   -0.5362    5.8666 H         1 <0>         0.0000
     12 H6          3.9149   -2.1877    6.4690 H         1 <0>         0.0000
     13 H7          1.3083    0.6043    2.0234 H         1 <0>         0.0000
     14 H8          2.1333   -0.6260    1.0902 H         1 <0>         0.0000
     15 H9          1.6817   -1.7131    5.4567 H         1 <0>         0.0000
     16 H10         2.5382   -2.9587    4.5115 H         1 <0>         0.0000
     17 H11         0.4147   -1.1588    3.5770 H         1 <0>         0.0000
     18 H12         1.2712   -2.4035    2.6320 H         1 <0>         0.0000
@<TRIPOS>BOND
     1    1    3 1
     2    2    4 1
     3    3    5 1
     4    4    6 1
     5    5    6 1
     6    1    7 1
     7    1    8 1
     8    1    9 1
     9    2   10 1
    10    2   11 1
    11    2   12 1
    12    3   13 1
    13    3   14 1
    14    4   15 1
    15    4   16 1
    16    5   17 1
    17    5   18 1
@<TRIPOS>MOLECULE
1,2-dibromopropane
   11    10     0     0     0
SMALL
NO_CHARGES

@<TRIPOS>ATOM
      1 C1          0.2080   -1.3332    0.1568 C.3       1 <0>         0.0000
      2 C2          0.1504    1.0498   -0.6362 C.3       1 <0>         0.0000
      3 C3         -0.3844    0.0515    0.3766 C.3       1 <0>         0.0000
      4 Br1        -1.0266    2.6007   -0.7816 Br        1 <0>         0.0000
      5 Br2         0.0895    0.6236    2.1948 Br        1 <0>         0.0000
      6 H1          1.3037   -1.3107    0.1663 H         1 <0>         0.0000
      7 H2         -0.1170   -2.0322    0.9354 H         1 <0>         0.0000
      8 H3         -0.1116   -1.7403   -0.8082 H         1 <0>         0.0000
      9 H4          1.1448    1.4314   -0.3868 H         1 <0>         0.0000
     10 H5          0.1743    0.6229   -1.6433 H         1 <0>         0.0000
     11 H6         -1.4778   -0.0050    0.3616 H         1 <0>         0.0000
@<TRIPOS>BOND
     1    1    3 1
     2    2    3 1
     3    2    4 1
     4    3    5 1
     5    1    6 1
     6    1    7 1
     7    1    8 1
     8    2    9 1
     9    2   10 1
    10    3   11 1
@<TRIPOS>MOLECULE
1,3-dibromopropane
   11    10     0     0     0
SMALL
NO_CHARGES

@<TRIPOS>ATOM
      1 C1         -0.3342    0.1486    0.3842 C.3       1 <0>         0.0000
      2 C2         -0.3185   -1.2258   -0.2627 C.3       1 <0>         0.0000
      3 C3          0.7376    1.0394   -0.2197 C.3       1 <0>         0.0000
      4 Br1        -1.7367   -2.3261    0.4909 Br        1 <0>         0.0000
      5 Br2         0.6571    2.8090    0.5880 Br        1 <0>         0.0000
      6 H1         -0.1770    0.0547    1.4666 H         1 <0>         0.0000
      7 H2         -1.3213    0.6113    0.2557 H         1 <0>         0.0000
      8 H3         -0.5019   -1.1739   -1.3394 H         1 <0>         0.0000
      9 H4          0.6199   -1.7554   -0.0766 H         1 <0>         0.0000
     10 H5          0.5955    1.1801   -1.2947 H         1 <0>         0.0000
     11 H6          1.7439    0.6554   -0.0309 H         1 <0>         0.0000
@<TRIPOS>BOND
     1    1    2 1
     2    1    3 1
     3    2    4 1
     4    3    5 1
     5    1    6 1
     6    1    7 1
     7    2    8 1
     8    2    9 1
     9    3   10 1
    10    3   11 1
@<TRIPOS>MOLECULE
amylpriopionate
   26    25     0     0     0
SMALL
NO_CHARGES

@<TRIPOS>ATOM
      1 C1          5.2415   -2.0415   -5.0274 C.2       1 <0>         0.0000
      2 C2          6.7592   -2.9230   -6.8261 C.3       1 <0>         0.0000
      3 C3          0.8518   -0.3688    0.6905 C.3       1 <0>         0.0000
      4 C4          5.9997   -3.2393   -5.5496 C.3       1 <0>         0.0000
      5 C5          1.6513   -1.4310   -0.0471 C.3       1 <0>         0.0000
      6 C6          2.2938   -0.8687   -1.3148 C.3       1 <0>         0.0000
      7 C7          3.1237   -1.9294   -2.0346 C.3       1 <0>         0.0000
      8 C8          3.8013   -1.3663   -3.2758 C.3       1 <0>         0.0000
      9 O1          5.2343   -0.9319   -5.5425 O.2       1 <0>         0.0000
     10 O2          4.5660   -2.3952   -3.8884 O.3       1 <0>         0.0000
     11 H1          6.0782   -2.5934   -7.6178 H         1 <0>         0.0000
     12 H2          7.4886   -2.1268   -6.6486 H         1 <0>         0.0000
     13 H3          7.2965   -3.8041   -7.1925 H         1 <0>         0.0000
     14 H4          1.4856    0.4815    0.9618 H         1 <0>         0.0000
     15 H5          0.0267    0.0005    0.0732 H         1 <0>         0.0000
     16 H6          0.4284   -0.7838    1.6105 H         1 <0>         0.0000
     17 H7          6.7063   -3.5653   -4.7789 H         1 <0>         0.0000
     18 H8          5.2839   -4.0449   -5.7443 H         1 <0>         0.0000
     19 H9          0.9892   -2.2661   -0.3036 H         1 <0>         0.0000
     20 H10         2.4270   -1.8247    0.6201 H         1 <0>         0.0000
     21 H11         1.5129   -0.4939   -1.9877 H         1 <0>         0.0000
     22 H12         2.9330   -0.0158   -1.0553 H         1 <0>         0.0000
     23 H13         2.4898   -2.7778   -2.3208 H         1 <0>         0.0000
     24 H14         3.8852   -2.3389   -1.3593 H         1 <0>         0.0000
     25 H15         4.4727   -0.5420   -3.0147 H         1 <0>         0.0000
     26 H16         3.0598   -1.0074   -3.9966 H         1 <0>         0.0000
@<TRIPOS>BOND
     1    1    4 1
     2    1    9 2
     3    1   10 1
     4    2    4 1
     5    3    5 1
     6    5    6 1
     7    6    7 1
     8    7    8 1
     9    8   10 1
    10    2   11 1
    11    2   12 1
    12    2   13 1
    13    3   14 1
    14    3   15 1
    15    3   16 1
    16    4   17 1
    17    4   18 1
    18    5   19 1
    19    5   20 1
    20    6   21 1
    21    6   22 1
    22    7   23 1
    23    7   24 1
    24    8   25 1
    25    8   26 1
@<TRIPOS>MOLECULE
isopropyl priopionate
   20    19     0     0     0
SMALL
NO_CHARGES

@<TRIPOS>ATOM
      1 C1         -0.9969    2.0636    3.3851 C.2       1 <0>         0.0000
      2 C2          1.2032    2.0336    2.1707 C.3       1 <0>         0.0000
      3 C3         -4.3863    1.1915    4.2284 C.3       1 <0>         0.0000
      4 C4         -2.7649    2.0047    5.9781 C.3       1 <0>         0.0000
      5 C5          0.0409    1.2091    2.6958 C.3       1 <0>         0.0000
      6 C6         -3.0835    1.9309    4.4926 C.3       1 <0>         0.0000
      7 O1         -0.9280    3.2762    3.5313 O.2       1 <0>         0.0000
      8 O2         -2.0159    1.2612    3.8143 O.3       1 <0>         0.0000
      9 H1          0.8602    2.7821    1.4487 H         1 <0>         0.0000
     10 H2          1.7031    2.5550    2.9928 H         1 <0>         0.0000
     11 H3          1.9409    1.3985    1.6691 H         1 <0>         0.0000
     12 H4         -4.3530    0.1732    4.6276 H         1 <0>         0.0000
     13 H5         -5.2258    1.7216    4.6908 H         1 <0>         0.0000
     14 H6         -4.6001    1.1403    3.1550 H         1 <0>         0.0000
     15 H7         -2.6931    1.0058    6.4191 H         1 <0>         0.0000
     16 H8         -3.5426    2.5658    6.5073 H         1 <0>         0.0000
     17 H9         -1.8215    2.5335    6.1530 H         1 <0>         0.0000
     18 H10         0.4150    0.4715    3.4137 H         1 <0>         0.0000
     19 H11        -0.4387    0.6868    1.8612 H         1 <0>         0.0000
     20 H12        -3.1486    2.9439    4.0821 H         1 <0>         0.0000
@<TRIPOS>BOND
     1    1    5 1
     2    1    7 2
     3    1    8 1
     4    2    5 1
     5    3    6 1
     6    4    6 1
     7    6    8 1
     8    2    9 1
     9    2   10 1
    10    2   11 1
    11    3   12 1
    12    3   13 1
    13    3   14 1
    14    4   15 1
    15    4   16 1
    16    4   17 1
    17    5   18 1
    18    5   19 1
    19    6   20 1
@<TRIPOS>MOLECULE
ethylheptanoate
   29    28     0     0     0
SMALL
NO_CHARGES

@<TRIPOS>ATOM
      1 C1          3.5933    7.5746   -1.4092 C.2       1 <0>         0.0000
      2 C2          0.8393    0.6872    0.1807 C.3       1 <0>         0.0000
      3 C3          3.8671   10.9242   -2.8643 C.3       1 <0>         0.0000
      4 C4          2.5401    6.5349   -1.7225 C.3       1 <0>         0.0000
      5 C5          0.7032    1.9239   -0.6932 C.3       1 <0>         0.0000
      6 C6          2.6586    5.2787   -0.8597 C.3       1 <0>         0.0000
      7 C7          1.7511    2.9785   -0.3382 C.3       1 <0>         0.0000
      8 C8          1.5899    4.2343   -1.1972 C.3       1 <0>         0.0000
      9 C9          4.2606    9.7776   -1.9575 C.3       1 <0>         0.0000
     10 O1          4.4918    7.4431   -0.5895 O.2       1 <0>         0.0000
     11 O2          3.3576    8.6870   -2.1664 O.3       1 <0>         0.0000
     12 H1          0.7394    0.9429    1.2404 H         1 <0>         0.0000
     13 H2          1.8205    0.2253    0.0336 H         1 <0>         0.0000
     14 H3          0.0737   -0.0549   -0.0676 H         1 <0>         0.0000
     15 H4          3.9176   10.6258   -3.9151 H         1 <0>         0.0000
     16 H5          2.8496   11.2613   -2.6409 H         1 <0>         0.0000
     17 H6          4.5282   11.7833   -2.7089 H         1 <0>         0.0000
     18 H7          2.6090    6.2624   -2.7818 H         1 <0>         0.0000
     19 H8          1.5638    7.0008   -1.5468 H         1 <0>         0.0000
     20 H9          0.8079    1.6340   -1.7452 H         1 <0>         0.0000
     21 H10        -0.3025    2.3421   -0.5704 H         1 <0>         0.0000
     22 H11         2.5495    5.5699    0.1923 H         1 <0>         0.0000
     23 H12         3.6570    4.8379   -0.9665 H         1 <0>         0.0000
     24 H13         2.7553    2.5614   -0.4823 H         1 <0>         0.0000
     25 H14         1.6604    3.2440    0.7222 H         1 <0>         0.0000
     26 H15         0.5940    4.6638   -1.0340 H         1 <0>         0.0000
     27 H16         1.6525    3.9600   -2.2565 H         1 <0>         0.0000
     28 H17         4.2080   10.0828   -0.9082 H         1 <0>         0.0000
     29 H18         5.2772    9.4416   -2.1825 H         1 <0>         0.0000
@<TRIPOS>BOND
     1    1    4 1
     2    1   10 2
     3    1   11 1
     4    2    5 1
     5    3    9 1
     6    4    6 1
     7    5    7 1
     8    6    8 1
     9    7    8 1
    10    9   11 1
    11    2   12 1
    12    2   13 1
    13    2   14 1
    14    3   15 1
    15    3   16 1
    16    3   17 1
    17    4   18 1
    18    4   19 1
    19    5   20 1
    20    5   21 1
    21    6   22 1
    22    6   23 1
    23    7   24 1
    24    7   25 1
    25    8   26 1
    26    8   27 1
    27    9   28 1
    28    9   29 1
@<TRIPOS>MOLECULE
dimethyoxymethane
   13    12     0     0     0
SMALL
NO_CHARGES

@<TRIPOS>ATOM
      1 C1          1.0116    0.1712    0.4206 C.3       1 <0>         0.0000
      2 C2          3.4841    1.7677   -1.8714 C.3       1 <0>         0.0000
      3 C3          2.7630    1.7603    0.3811 C.3       1 <0>         0.0000
      4 O1          1.3911    1.4995    0.0855 O.3       1 <0>         0.0000
      5 O2          3.6773    1.2212   -0.5734 O.3       1 <0>         0.0000
      6 H1         -0.0429    0.0203    0.1770 H         1 <0>         0.0000
      7 H2          1.1779    0.0020    1.4875 H         1 <0>         0.0000
      8 H3          1.6204   -0.5287   -0.1566 H         1 <0>         0.0000
      9 H4          4.2043    1.3260   -2.5644 H         1 <0>         0.0000
     10 H5          3.6157    2.8521   -1.8344 H         1 <0>         0.0000
     11 H6          2.4703    1.5369   -2.2070 H         1 <0>         0.0000
     12 H7          2.8986    2.8457    0.4467 H         1 <0>         0.0000
     13 H8          3.0117    1.3462    1.3648 H         1 <0>         0.0000
@<TRIPOS>BOND
     1    1    4 1
     2    2    5 1
     3    3    4 1
     4    3    5 1
     5    1    6 1
     6    1    7 1
     7    1    8 1
     8    2    9 1
     9    2   10 1
    10    2   11 1
    11    3   12 1
    12    3   13 1
@<TRIPOS>MOLECULE
1,2-diethoxyethane
   22    21     0     0     0
SMALL
NO_CHARGES

@<TRIPOS>ATOM
      1 C1          0.3016    0.5416    3.9174 C.3       1 <0>         0.0000
      2 C2         -3.1659   -3.7253   -0.0467 C.3       1 <0>         0.0000
      3 C3          0.3152    0.8016    2.4261 C.3       1 <0>         0.0000
      4 C4         -3.2682   -2.2457   -0.3502 C.3       1 <0>         0.0000
      5 C5         -0.8936    0.4506    0.4416 C.3       1 <0>         0.0000
      6 C6         -2.1461   -0.1936   -0.1209 C.3       1 <0>         0.0000
      7 O1         -0.8526    0.2362    1.8472 O.3       1 <0>         0.0000
      8 O2         -2.1048   -1.5918    0.1373 O.3       1 <0>         0.0000
      9 H1         -0.5755    0.9976    4.3850 H         1 <0>         0.0000
     10 H2          0.2921   -0.5341    4.1217 H         1 <0>         0.0000
     11 H3          1.2035    0.9470    4.3879 H         1 <0>         0.0000
     12 H4         -2.2898   -4.1636   -0.5327 H         1 <0>         0.0000
     13 H5         -3.0928   -3.8938    1.0327 H         1 <0>         0.0000
     14 H6         -4.0617   -4.2526   -0.3913 H         1 <0>         0.0000
     15 H7          1.1948    0.3430    1.9646 H         1 <0>         0.0000
     16 H8          0.3238    1.8768    2.2238 H         1 <0>         0.0000
     17 H9         -4.1464   -1.8135    0.1387 H         1 <0>         0.0000
     18 H10        -3.3402   -2.0790   -1.4291 H         1 <0>         0.0000
     19 H11        -0.8901    1.5299    0.2612 H         1 <0>         0.0000
     20 H12         0.0000    0.0000    0.0000 H         1 <0>         0.0000
     21 H13        -2.2121   -0.0487   -1.2038 H         1 <0>         0.0000
     22 H14        -3.0378    0.2178    0.3611 H         1 <0>         0.0000
@<TRIPOS>BOND
     1    1    3 1
     2    2    4 1
     3    3    7 1
     4    4    8 1
     5    5    6 1
     6    5    7 1
     7    6    8 1
     8    1    9 1
     9    1   10 1
    10    1   11 1
    11    2   12 1
    12    2   13 1
    13    2   14 1
    14    3   15 1
    15    3   16 1
    16    4   17 1
    17    4   18 1
    18    5   19 1
    19    5   20 1
    20    6   21 1
    21    6   22 1
@<TRIPOS>MOLECULE
1,1-diethoxyethane
   22    21     0     0     0
SMALL
NO_CHARGES

@<TRIPOS>ATOM
      1 C1         -2.1997    1.7783   -2.9577 C.3       1 <0>         0.0000
      2 C2          0.5179   -3.9602   -4.0798 C.3       1 <0>         0.0000
      3 C3         -0.0326   -1.0089   -0.4213 C.3       1 <0>         0.0000
      4 C4         -0.9532    1.1285   -2.3958 C.3       1 <0>         0.0000
      5 C5          0.5466   -2.4957   -3.6976 C.3       1 <0>         0.0000
      6 C6          0.0350   -0.9855   -1.9430 C.3       1 <0>         0.0000
      7 O1         -1.1004   -0.2838   -2.4553 O.3       1 <0>         0.0000
      8 O2          0.0393   -2.3517   -2.3774 O.3       1 <0>         0.0000
      9 H1         -2.3553    1.4873   -4.0003 H         1 <0>         0.0000
     10 H2         -3.0810    1.4908   -2.3750 H         1 <0>         0.0000
     11 H3         -2.1241    2.8694   -2.9030 H         1 <0>         0.0000
     12 H4          1.1378   -4.5527   -3.4012 H         1 <0>         0.0000
     13 H5         -0.5062   -4.3466   -4.0514 H         1 <0>         0.0000
     14 H6          0.8823   -4.0991   -5.1031 H         1 <0>         0.0000
     15 H7         -0.9633   -1.4805   -0.0861 H         1 <0>         0.0000
     16 H8         -0.0085    0.0004   -0.0004 H         1 <0>         0.0000
     17 H9          0.7968   -1.5881   -0.0030 H         1 <0>         0.0000
     18 H10        -0.8033    1.4236   -1.3530 H         1 <0>         0.0000
     19 H11        -0.0737    1.4162   -2.9796 H         1 <0>         0.0000
     20 H12        -0.0753   -1.9087   -4.3801 H         1 <0>         0.0000
     21 H13         1.5706   -2.1114   -3.7256 H         1 <0>         0.0000
     22 H14         0.9718   -0.5106   -2.2632 H         1 <0>         0.0000
@<TRIPOS>BOND
     1    1    4 1
     2    2    5 1
     3    3    6 1
     4    4    7 1
     5    5    8 1
     6    6    7 1
     7    6    8 1
     8    1    9 1
     9    1   10 1
    10    1   11 1
    11    2   12 1
    12    2   13 1
    13    2   14 1
    14    3   15 1
    15    3   16 1
    16    3   17 1
    17    4   18 1
    18    4   19 1
    19    5   20 1
    20    5   21 1
    21    6   22 1
@<TRIPOS>MOLECULE
dibutylamine
   28    27     0     0     0
SMALL
NO_CHARGES

@<TRIPOS>ATOM
      1 C1         -6.1756    2.6138    2.8731 C.3       1 <0>         0.0000
      2 C2          3.5584    4.5787    3.9222 C.3       1 <0>         0.0000
      3 C3         -4.8364    2.7234    2.1608 C.3       1 <0>         0.0000
      4 C4          2.4694    4.1355    2.9576 C.3       1 <0>         0.0000
      5 C5         -3.7302    3.1743    3.1173 C.3       1 <0>         0.0000
      6 C6          1.1063    4.0620    3.6496 C.3       1 <0>         0.0000
      7 C7         -2.3629    3.2356    2.4445 C.3       1 <0>         0.0000
      8 C8         -0.0169    3.6778    2.6921 C.3       1 <0>         0.0000
      9 N1         -1.3228    3.6343    3.3520 N.3       1 <0>         0.0000
     10 H1         -6.4625    3.5719    3.3183 H         1 <0>         0.0000
     11 H2         -6.9578    2.3198    2.1661 H         1 <0>         0.0000
     12 H3         -6.1370    1.8627    3.6684 H         1 <0>         0.0000
     13 H4          3.6308    3.8939    4.7733 H         1 <0>         0.0000
     14 H5          4.5288    4.5956    3.4161 H         1 <0>         0.0000
     15 H6          3.3579    5.5842    4.3057 H         1 <0>         0.0000
     16 H7         -4.5796    1.7498    1.7276 H         1 <0>         0.0000
     17 H8         -4.9330    3.4330    1.3313 H         1 <0>         0.0000
     18 H9          2.4235    4.8406    2.1196 H         1 <0>         0.0000
     19 H10         2.7382    3.1568    2.5447 H         1 <0>         0.0000
     20 H11        -3.9828    4.1570    3.5343 H         1 <0>         0.0000
     21 H12        -3.6739    2.4717    3.9576 H         1 <0>         0.0000
     22 H13         1.1520    3.3419    4.4759 H         1 <0>         0.0000
     23 H14         0.8724    5.0405    4.0864 H         1 <0>         0.0000
     24 H15        -2.3638    3.9384    1.6055 H         1 <0>         0.0000
     25 H16        -2.0903    2.2473    2.0607 H         1 <0>         0.0000
     26 H17         0.1638    2.6973    2.2404 H         1 <0>         0.0000
     27 H18        -0.0904    4.4155    1.8867 H         1 <0>         0.0000
     28 H19        -1.5220    4.5661    3.7335 H         1 <0>         0.0000
@<TRIPOS>BOND
     1    1    3 1
     2    2    4 1
     3    3    5 1
     4    4    6 1
     5    5    7 1
     6    6    8 1
     7    7    9 1
     8    8    9 1
     9    1   10 1
    10    1   11 1
    11    1   12 1
    12    2   13 1
    13    2   14 1
    14    2   15 1
    15    3   16 1
    16    3   17 1
    17    4   18 1
    18    4   19 1
    19    5   20 1
    20    5   21 1
    21    6   22 1
    22    6   23 1
    23    7   24 1
    24    7   25 1
    25    8   26 1
    26    8   27 1
    27    9   28 1
@<TRIPOS>MOLECULE
2-isobutyl-3-methoxypyrazine
   26    26     0     0     0
SMALL
NO_CHARGES

@<TRIPOS>ATOM
      1 C1         -3.0879    3.2494   -0.8413 C.ar      1 <0>         0.0000
      2 C2         -2.3501    3.1545   -2.0007 C.ar      1 <0>         0.0000
      3 C3         -1.2871    2.5197    0.3646 C.ar      1 <0>         0.0000
      4 C4         -0.5494    2.4240   -0.7948 C.ar      1 <0>         0.0000
      5 C5         -0.9959    4.4902    2.6928 C.3       1 <0>         0.0000
      6 C6          0.6026    2.8733    3.7387 C.3       1 <0>         0.0000
      7 C7          1.4310    1.9353   -2.0174 C.3       1 <0>         0.0000
      8 C8         -0.6900    2.1628    1.7040 C.3       1 <0>         0.0000
      9 C9         -0.0137    3.3481    2.4205 C.3       1 <0>         0.0000
     10 N1         -2.5696    2.9338    0.3621 N.ar      1 <0>         0.0000
     11 N2         -1.0676    2.7400   -1.9982 N.ar      1 <0>         0.0000
     12 O1          0.7501    2.0017   -0.7683 O.3       1 <0>         0.0000
     13 H1         -4.1172    3.5861   -0.8437 H         1 <0>         0.0000
     14 H2         -2.7668    3.4097   -2.9671 H         1 <0>         0.0000
     15 H3         -1.8318    4.1554    3.3164 H         1 <0>         0.0000
     16 H4         -1.4055    4.8936    1.7615 H         1 <0>         0.0000
     17 H5         -0.4964    5.3148    3.2128 H         1 <0>         0.0000
     18 H6         -0.1671    2.4704    4.4055 H         1 <0>         0.0000
     19 H7          1.3486    2.0892    3.5694 H         1 <0>         0.0000
     20 H8          1.0933    3.7022    4.2598 H         1 <0>         0.0000
     21 H9          2.4540    1.5860   -1.8576 H         1 <0>         0.0000
     22 H10         1.4409    2.9250   -2.4811 H         1 <0>         0.0000
     23 H11         0.9069    1.2341   -2.6711 H         1 <0>         0.0000
     24 H12        -1.4612    1.7255    2.3519 H         1 <0>         0.0000
     25 H13         0.0432    1.3619    1.5386 H         1 <0>         0.0000
     26 H14         0.7983    3.7397    1.7946 H         1 <0>         0.0000
@<TRIPOS>BOND
     1    1    2 ar
     2    1   10 ar
     3    2   11 ar
     4    3    4 ar
     5    3    8 1
     6    3   10 ar
     7    4   11 ar
     8    4   12 1
     9    5    9 1
    10    6    9 1
    11    7   12 1
    12    8    9 1
    13    1   13 1
    14    2   14 1
    15    5   15 1
    16    5   16 1
    17    5   17 1
    18    6   18 1
    19    6   19 1
    20    6   20 1
    21    7   21 1
    22    7   22 1
    23    7   23 1
    24    8   24 1
    25    8   25 1
    26    9   26 1
@<TRIPOS>MOLECULE
hexafluoro-2-propanol
   12    11     0     0     0
SMALL
NO_CHARGES

@<TRIPOS>ATOM
      1 C1          0.0382   -1.4447   -1.3100 C.3       1 <0>         0.0000
      2 C2          1.5496   -1.4144   -1.4065 C.3       1 <0>         0.0000
      3 C3         -0.5226   -2.8468   -1.4189 C.3       1 <0>         0.0000
      4 O1         -0.3594   -0.9022   -0.0546 O.3       1 <0>         0.0000
      5 F1          2.0219   -0.1569   -1.2636 F         1 <0>         0.0000
      6 F2          2.1068   -2.1690   -0.4332 F         1 <0>         0.0000
      7 F3          1.9844   -1.8870   -2.5937 F         1 <0>         0.0000
      8 F4         -0.2276   -3.3898   -2.6210 F         1 <0>         0.0000
      9 F5         -1.8650   -2.8612   -1.2787 F         1 <0>         0.0000
     10 F6          0.0006   -3.6552   -0.4715 F         1 <0>         0.0000
     11 H1         -0.3954   -0.8195   -2.0974 H         1 <0>         0.0000
     12 H2          0.0447   -1.4596    0.6288 H         1 <0>         0.0000
@<TRIPOS>BOND
     1    1    2 1
     2    1    3 1
     3    1    4 1
     4    2    5 1
     5    2    6 1
     6    2    7 1
     7    3    8 1
     8    3    9 1
     9    3   10 1
    10    1   11 1
    11    4   12 1
@<TRIPOS>MOLECULE
acetonitrile
    6     5     0     0     0
SMALL
NO_CHARGES

@<TRIPOS>ATOM
      1 C1         -0.2062    1.4713    1.5045 C.1       1 <0>         0.0000
      2 C2          0.4477    0.2839    0.9571 C.3       1 <0>         0.0000
      3 N1         -0.7251    2.4137    1.9390 N.1       1 <0>         0.0000
      4 H1         -0.2827   -0.5070    0.7620 H         1 <0>         0.0000
      5 H2          1.1929   -0.1068    1.6564 H         1 <0>         0.0000
      6 H3          0.9545    0.5181    0.0162 H         1 <0>         0.0000
@<TRIPOS>BOND
     1    1    2 1
     2    1    3 3
     3    2    4 1
     4    2    5 1
     5    2    6 1
@<TRIPOS>MOLECULE
2,3-dimethylbutanol
   21    20     0     0     0
SMALL
NO_CHARGES

@<TRIPOS>ATOM
      1 C1          1.2427   -5.3304    0.6133 C.3       1 <0>         0.0000
      2 C2          1.4291   -2.9751    1.4414 C.3       1 <0>         0.0000
      3 C3          1.8318   -3.3100   -1.6739 C.3       1 <0>         0.0000
      4 C4         -0.1778   -1.9946   -0.9068 C.3       1 <0>         0.0000
      5 C5          0.6369   -3.9263    0.5377 C.3       1 <0>         0.0000
      6 C6          0.5040   -3.3724   -0.9070 C.3       1 <0>         0.0000
      7 O1         -0.4424   -1.5870   -2.2443 O.3       1 <0>         0.0000
      8 H1          2.2591   -5.3513    0.2098 H         1 <0>         0.0000
      9 H2          0.6460   -6.0354    0.0239 H         1 <0>         0.0000
     10 H3          1.2725   -5.7054    1.6410 H         1 <0>         0.0000
     11 H4          2.4612   -2.8506    1.0993 H         1 <0>         0.0000
     12 H5          1.4668   -3.3630    2.4654 H         1 <0>         0.0000
     13 H6          0.9574   -1.9876    1.4793 H         1 <0>         0.0000
     14 H7          2.5490   -2.6472   -1.1814 H         1 <0>         0.0000
     15 H8          1.6786   -2.9182   -2.6854 H         1 <0>         0.0000
     16 H9          2.2892   -4.2996   -1.7710 H         1 <0>         0.0000
     17 H10        -1.1282   -2.0162   -0.3644 H         1 <0>         0.0000
     18 H11         0.4725   -1.2418   -0.4493 H         1 <0>         0.0000
     19 H12        -0.3763   -3.9863    0.9584 H         1 <0>         0.0000
     20 H13        -0.1469   -4.0552   -1.4712 H         1 <0>         0.0000
     21 H14        -0.8701   -0.7176   -2.1909 H         1 <0>         0.0000
@<TRIPOS>BOND
     1    1    5 1
     2    2    5 1
     3    3    6 1
     4    4    6 1
     5    4    7 1
     6    5    6 1
     7    1    8 1
     8    1    9 1
     9    1   10 1
    10    2   11 1
    11    2   12 1
    12    2   13 1
    13    3   14 1
    14    3   15 1
    15    3   16 1
    16    4   17 1
    17    4   18 1
    18    5   19 1
    19    6   20 1
    20    7   21 1
@<TRIPOS>MOLECULE
2,2'-dichlorodiethyl sulfide
   15    14     0     0     0
SMALL
NO_CHARGES

@<TRIPOS>ATOM
      1 C1         -0.7391   -0.1867   -0.7857 C.3       1 <0>         0.0000
      2 C2         -0.9412   -1.7613   -3.0209 C.3       1 <0>         0.0000
      3 C3         -1.9624    0.6897   -1.0148 C.3       1 <0>         0.0000
      4 C4         -0.4180   -2.3435   -4.3264 C.3       1 <0>         0.0000
      5 S1          0.1728   -0.5217   -2.3226 S.3       1 <0>         0.0000
      6 Cl1        -1.5284    2.2958   -1.6514 Cl        1 <0>         0.0000
      7 Cl2        -0.2541   -1.1052   -5.5962 Cl        1 <0>         0.0000
      8 H1         -0.0573    0.2713   -0.0619 H         1 <0>         0.0000
      9 H2         -1.0555   -1.1511   -0.3754 H         1 <0>         0.0000
     10 H3         -1.9297   -1.3114   -3.1593 H         1 <0>         0.0000
     11 H4         -1.0445   -2.5625   -2.2820 H         1 <0>         0.0000
     12 H5         -2.6743    0.2275   -1.7061 H         1 <0>         0.0000
     13 H6         -2.4788    0.8580   -0.0648 H         1 <0>         0.0000
     14 H7          0.5526   -2.8330   -4.1972 H         1 <0>         0.0000
     15 H8         -1.1221   -3.0904   -4.7057 H         1 <0>         0.0000
@<TRIPOS>BOND
     1    1    3 1
     2    1    5 1
     3    2    4 1
     4    2    5 1
     5    3    6 1
     6    4    7 1
     7    1    8 1
     8    1    9 1
     9    2   10 1
    10    2   11 1
    11    3   12 1
    12    3   13 1
    13    4   14 1
    14    4   15 1
@<TRIPOS>MOLECULE
N-methylpyrrolidine
   17    17     0     0     0
SMALL
NO_CHARGES

@<TRIPOS>ATOM
      1 C1         -0.1015    0.6362    0.8851 C.3       1 <0>         0.0000
      2 C2         -1.5257    0.6199    1.4322 C.3       1 <0>         0.0000
      3 C3          0.7704    0.1422    2.0303 C.3       1 <0>         0.0000
      4 C4         -1.3973    0.1126    2.8608 C.3       1 <0>         0.0000
      5 C5          0.4335   -0.2886    4.3802 C.3       1 <0>         0.0000
      6 N1         -0.0239    0.4754    3.2138 N.3       1 <0>         0.0000
      7 H1          0.0004   -0.0003    0.0002 H         1 <0>         0.0000
      8 H2          0.1740    1.6578    0.5979 H         1 <0>         0.0000
      9 H3         -1.9411    1.6343    1.4148 H         1 <0>         0.0000
     10 H4         -2.1820   -0.0222    0.8359 H         1 <0>         0.0000
     11 H5          0.9260   -0.9404    1.9369 H         1 <0>         0.0000
     12 H6          1.7471    0.6364    2.0361 H         1 <0>         0.0000
     13 H7         -2.1316    0.5816    3.5234 H         1 <0>         0.0000
     14 H8         -1.5494   -0.9744    2.8835 H         1 <0>         0.0000
     15 H9         -0.1668   -0.0313    5.2568 H         1 <0>         0.0000
     16 H10         1.4818   -0.0623    4.5929 H         1 <0>         0.0000
     17 H11         0.3379   -1.3611    4.1908 H         1 <0>         0.0000
@<TRIPOS>BOND
     1    1    2 1
     2    1    3 1
     3    2    4 1
     4    3    6 1
     5    4    6 1
     6    5    6 1
     7    1    7 1
     8    1    8 1
     9    2    9 1
    10    2   10 1
    11    3   11 1
    12    3   12 1
    13    4   13 1
    14    4   14 1
    15    5   15 1
    16    5   16 1
    17    5   17 1
@<TRIPOS>MOLECULE
1,1,1-trifluoro-2-propanol
   12    11     0     0     0
SMALL
NO_CHARGES

@<TRIPOS>ATOM
      1 C1         -0.7763    0.5918    0.8349 C.3       1 <0>         0.0000
      2 C2         -0.2372   -0.1769   -0.3621 C.3       1 <0>         0.0000
      3 C3          1.1381   -0.7496   -0.0933 C.3       1 <0>         0.0000
      4 O1         -0.1452    0.6998   -1.4804 O.3       1 <0>         0.0000
      5 F1          1.6183   -1.3896   -1.1822 F         1 <0>         0.0000
      6 F2          2.0149    0.2299    0.2202 F         1 <0>         0.0000
      7 F3          1.1202   -1.6309    0.9292 F         1 <0>         0.0000
      8 H1         -0.1017    1.4088    1.1138 H         1 <0>         0.0000
      9 H2         -0.9132   -0.0628    1.7007 H         1 <0>         0.0000
     10 H3         -1.7404    1.0513    0.5914 H         1 <0>         0.0000
     11 H4         -0.9249   -0.9878   -0.6244 H         1 <0>         0.0000
     12 H5         -1.0427    1.0253   -1.6523 H         1 <0>         0.0000
@<TRIPOS>BOND
     1    1    2 1
     2    2    3 1
     3    2    4 1
     4    3    5 1
     5    3    6 1
     6    3    7 1
     7    1    8 1
     8    1    9 1
     9    1   10 1
    10    2   11 1
    11    4   12 1
@<TRIPOS>MOLECULE
3-ethyl-2-methoxypyrazine
   20    20     0     0     0
SMALL
NO_CHARGES

@<TRIPOS>ATOM
      1 C1         -1.5571   -1.3073    0.7174 C.ar      1 <0>         0.0000
      2 C2         -0.3211   -1.0181    0.1824 C.ar      1 <0>         0.0000
      3 C3         -1.0772   -3.5410    0.6188 C.ar      1 <0>         0.0000
      4 C4          0.1585   -3.2519    0.0831 C.ar      1 <0>         0.0000
      5 C5         -1.9257   -5.6606   -0.4176 C.3       1 <0>         0.0000
      6 C6          2.2883   -3.8521   -0.7883 C.3       1 <0>         0.0000
      7 C7         -1.5031   -4.9477    0.8649 C.3       1 <0>         0.0000
      8 N1         -1.9573   -2.5739    0.9453 N.ar      1 <0>         0.0000
      9 N2          0.5588   -1.9852   -0.1444 N.ar      1 <0>         0.0000
     10 O1          1.0352   -4.2493   -0.2402 O.3       1 <0>         0.0000
     11 H1         -2.2621   -0.5294    0.9832 H         1 <0>         0.0000
     12 H2          0.0003    0.0000    0.0011 H         1 <0>         0.0000
     13 H3         -2.7350   -5.1191   -0.9191 H         1 <0>         0.0000
     14 H4         -2.2791   -6.6734   -0.2003 H         1 <0>         0.0000
     15 H5         -1.0875   -5.7367   -1.1185 H         1 <0>         0.0000
     16 H6          2.8911   -4.7384   -1.0011 H         1 <0>         0.0000
     17 H7          2.8096   -3.2059   -0.0775 H         1 <0>         0.0000
     18 H8          2.1124   -3.3026   -1.7161 H         1 <0>         0.0000
     19 H9         -0.6896   -5.5187    1.3417 H         1 <0>         0.0000
     20 H10        -2.3382   -4.9771    1.5839 H         1 <0>         0.0000
@<TRIPOS>BOND
     1    1    2 ar
     2    1    8 ar
     3    2    9 ar
     4    3    4 ar
     5    3    7 1
     6    3    8 ar
     7    4    9 ar
     8    4   10 1
     9    5    7 1
    10    6   10 1
    11    1   11 1
    12    2   12 1
    13    5   13 1
    14    5   14 1
    15    5   15 1
    16    6   16 1
    17    6   17 1
    18    6   18 1
    19    7   19 1
    20    7   20 1
@<TRIPOS>MOLECULE
trans-trans-2,4-hexadienal
   15    14     0     0     0
SMALL
NO_CHARGES

@<TRIPOS>ATOM
      1 C1         -0.5386    0.7331   -0.2014 C.2       1 <0>         0.0000
      2 C2         -0.4559    1.9864    0.2612 C.2       1 <0>         0.0000
      3 C3          0.3760   -0.3109    0.2042 C.2       1 <0>         0.0000
      4 C4          0.3025   -1.5696   -0.2528 C.2       1 <0>         0.0000
      5 C5         -1.4329    2.9884   -0.2077 C.2       1 <0>         0.0000
      6 C6          1.2408   -2.6564    0.1586 C.3       1 <0>         0.0000
      7 O1         -1.4064    4.1501    0.1804 O.2       1 <0>         0.0000
      8 H1         -1.3149    0.4605   -0.9123 H         1 <0>         0.0000
      9 H2          0.2998    2.3069    0.9694 H         1 <0>         0.0000
     10 H3          1.1542   -0.0436    0.9147 H         1 <0>         0.0000
     11 H4         -0.4723   -1.8467   -0.9638 H         1 <0>         0.0000
     12 H5         -2.1892    2.6343   -0.9280 H         1 <0>         0.0000
     13 H6          2.1011   -2.6810   -0.5173 H         1 <0>         0.0000
     14 H7          1.6125   -2.5201    1.1791 H         1 <0>         0.0000
     15 H8          0.7345   -3.6251    0.1066 H         1 <0>         0.0000
@<TRIPOS>BOND
     1    1    2 2
     2    1    3 1
     3    2    5 1
     4    3    4 2
     5    4    6 1
     6    5    7 2
     7    1    8 1
     8    2    9 1
     9    3   10 1
    10    4   11 1
    11    5   12 1
    12    6   13 1
    13    6   14 1
    14    6   15 1
@<TRIPOS>MOLECULE
2,2,3,3-tetrafluoropropanol
   12    11     0     0     0
SMALL
NO_CHARGES

@<TRIPOS>ATOM
      1 C1          0.7701   -0.7773    0.0052 C.3       1 <0>         0.0000
      2 C2          1.2483   -0.4918   -2.4547 C.3       1 <0>         0.0000
      3 C3          0.8719   -1.4496   -1.3497 C.3       1 <0>         0.0000
      4 O1          0.4407   -1.7602    0.9794 O.3       1 <0>         0.0000
      5 F1          1.3302   -1.1709   -3.6267 F         1 <0>         0.0000
      6 F2          2.4749    0.0334   -2.2200 F         1 <0>         0.0000
      7 F3         -0.3151   -2.0312   -1.6563 F         1 <0>         0.0000
      8 F4          1.7960   -2.4418   -1.2917 F         1 <0>         0.0000
      9 H1          1.7230   -0.3221    0.2914 H         1 <0>         0.0000
     10 H2         -0.0183   -0.0185    0.0078 H         1 <0>         0.0000
     11 H3          0.5243    0.3187   -2.5754 H         1 <0>         0.0000
     12 H4          0.3832   -1.2997    1.8318 H         1 <0>         0.0000
@<TRIPOS>BOND
     1    1    3 1
     2    1    4 1
     3    2    3 1
     4    2    5 1
     5    2    6 1
     6    3    7 1
     7    3    8 1
     8    1    9 1
     9    1   10 1
    10    2   11 1
    11    4   12 1
@<TRIPOS>MOLECULE
2,2,3,3,3-pentafluoropropanol
   12    11     0     0     0
SMALL
NO_CHARGES

@<TRIPOS>ATOM
      1 C1          0.8894    0.5538   -0.3142 C.3       1 <0>         0.0000
      2 C2          0.8809    1.9631    0.2456 C.3       1 <0>         0.0000
      3 C3          0.8866    2.0034    1.7521 C.3       1 <0>         0.0000
      4 O1          0.8963    0.6066   -1.7363 O.3       1 <0>         0.0000
      5 F1          1.9642    2.6373   -0.2166 F         1 <0>         0.0000
      6 F2         -0.2158    2.6212   -0.2079 F         1 <0>         0.0000
      7 F3          1.9827    1.3962    2.2544 F         1 <0>         0.0000
      8 F4         -0.1996    1.3854    2.2627 F         1 <0>         0.0000
      9 F5          0.8820    3.2788    2.1964 F         1 <0>         0.0000
     10 H1          1.7768   -0.0002    0.0072 H         1 <0>         0.0000
     11 H2         -0.0056    0.0037   -0.0094 H         1 <0>         0.0000
     12 H3          0.9017   -0.3121   -2.0489 H         1 <0>         0.0000
@<TRIPOS>BOND
     1    1    2 1
     2    1    4 1
     3    2    3 1
     4    2    5 1
     5    2    6 1
     6    3    7 1
     7    3    8 1
     8    3    9 1
     9    1   10 1
    10    1   11 1
    11    4   12 1
@<TRIPOS>MOLECULE
hexamethylenediamine
   24    23     0     0     0
SMALL
NO_CHARGES

@<TRIPOS>ATOM
      1 C1          0.8141   -0.7160   -0.1555 C.3       1 <0>         0.0000
      2 C2          1.6475   -0.2988   -1.3698 C.3       1 <0>         0.0000
      3 C3          0.2280   -2.1195   -0.3434 C.3       1 <0>         0.0000
      4 C4          2.2544    1.1031   -1.2403 C.3       1 <0>         0.0000
      5 C5         -0.6202   -2.5623    0.8448 C.3       1 <0>         0.0000
      6 C6          3.1404    1.5297   -2.4071 C.3       1 <0>         0.0000
      7 N1         -1.1515   -3.8874    0.6807 N.3       1 <0>         0.0000
      8 N2          3.6516    2.8637   -2.2544 N.3       1 <0>         0.0000
      9 H1          1.4412   -0.6984    0.7441 H         1 <0>         0.0000
     10 H2         -0.0000    0.0000    0.0000 H         1 <0>         0.0000
     11 H3          2.4705   -1.0126   -1.5007 H         1 <0>         0.0000
     12 H4          1.0355   -0.3602   -2.2775 H         1 <0>         0.0000
     13 H5          1.0470   -2.8371   -0.4733 H         1 <0>         0.0000
     14 H6         -0.3740   -2.1462   -1.2602 H         1 <0>         0.0000
     15 H7          1.4459    1.8351   -1.1245 H         1 <0>         0.0000
     16 H8          2.8429    1.1361   -0.3146 H         1 <0>         0.0000
     17 H9         -1.4623   -1.8812    1.0028 H         1 <0>         0.0000
     18 H10        -0.0135   -2.5730    1.7556 H         1 <0>         0.0000
     19 H11         3.9917    0.8559   -2.5368 H         1 <0>         0.0000
     20 H12         2.5615    1.5162   -3.3362 H         1 <0>         0.0000
     21 H13        -1.4857   -4.1751   -0.2259 H         1 <0>         0.0000
     22 H14        -1.3718   -4.4342    1.4986 H         1 <0>         0.0000
     23 H15         3.8818    3.4002   -3.0764 H         1 <0>         0.0000
     24 H16         3.9637    3.1706   -1.3460 H         1 <0>         0.0000
@<TRIPOS>BOND
     1    1    2 1
     2    1    3 1
     3    2    4 1
     4    3    5 1
     5    4    6 1
     6    5    7 1
     7    6    8 1
     8    1    9 1
     9    1   10 1
    10    2   11 1
    11    2   12 1
    12    3   13 1
    13    3   14 1
    14    4   15 1
    15    4   16 1
    16    5   17 1
    17    5   18 1
    18    6   19 1
    19    6   20 1
    20    7   21 1
    21    7   22 1
    22    8   23 1
    23    8   24 1
@<TRIPOS>MOLECULE
allyl alcohol
    8     7     0     0     0
SMALL
NO_CHARGES

@<TRIPOS>ATOM
      1 C1         -0.2370    0.1444    0.3103 C.1       1 <0>         0.0000
      2 C2         -1.1272    0.0920    1.2539 C.2       1 <0>         0.0000
      3 C3          0.6509    0.1993   -0.6290 C.2       1 <0>         0.0000
      4 O1          0.7369   -0.8466   -1.4970 O.3       1 <0>         0.0000
      5 H1         -1.7846   -0.7648    1.3459 H         1 <0>         0.0000
      6 H2         -1.2290    0.9056    1.9625 H         1 <0>         0.0000
      7 H3          1.3458    1.0052   -0.8001 H         1 <0>         0.0000
      8 H4          1.4334   -0.6939   -2.1528 H         1 <0>         0.0000
@<TRIPOS>BOND
     1    1    2 2
     2    1    3 2
     3    3    4 1
     4    2    5 1
     5    2    6 1
     6    3    7 1
     7    4    8 1
@<TRIPOS>MOLECULE
N-methylindole
   19    20     0     0     0
SMALL
NO_CHARGES

@<TRIPOS>ATOM
      1 C1         -0.7036    1.3640    1.5041 C.ar      1 <0>         0.0000
      2 C2         -0.7671    0.1975    0.7446 C.ar      1 <0>         0.0000
      3 C3         -1.6773    1.6439    2.4698 C.ar      1 <0>         0.0000
      4 C4         -1.8022   -0.7245    0.9247 C.ar      1 <0>         0.0000
      5 C5         -3.8586    0.6897    3.5356 C.2       1 <0>         0.0000
      6 C6         -4.5471   -0.4724    3.2738 C.2       1 <0>         0.0000
      7 C7         -2.7304    0.7292    2.6692 C.ar      1 <0>         0.0000
      8 C8         -2.7685   -0.4315    1.8936 C.ar      1 <0>         0.0000
      9 C9         -4.3024   -2.4132    1.7332 C.3       1 <0>         0.0000
     10 N1         -3.8818   -1.1421    2.2822 N.pl3     1 <0>         0.0000
     11 H1          0.1102    2.0668    1.3453 H         1 <0>         0.0000
     12 H2         -0.0007    0.0003   -0.0008 H         1 <0>         0.0000
     13 H3         -1.6154    2.5572    3.0547 H         1 <0>         0.0000
     14 H4         -1.8458   -1.6317    0.3312 H         1 <0>         0.0000
     15 H5         -4.1384    1.4310    4.2716 H         1 <0>         0.0000
     16 H6         -5.4514   -0.8744    3.7106 H         1 <0>         0.0000
     17 H7         -4.9675   -2.2126    0.8891 H         1 <0>         0.0000
     18 H8         -3.4245   -2.9756    1.4029 H         1 <0>         0.0000
     19 H9         -4.8245   -2.9853    2.5052 H         1 <0>         0.0000
@<TRIPOS>BOND
     1    1    2 ar
     2    1    3 ar
     3    2    4 ar
     4    3    7 ar
     5    4    8 ar
     6    5    6 2
     7    5    7 1
     8    6   10 1
     9    7    8 ar
    10    8   10 1
    11    9   10 1
    12    1   11 1
    13    2   12 1
    14    3   13 1
    15    4   14 1
    16    5   15 1
    17    6   16 1
    18    9   17 1
    19    9   18 1
    20    9   19 1
@<TRIPOS>MOLECULE
P(OC3H7)3
   34    33     0     0     0
SMALL
NO_CHARGES

@<TRIPOS>ATOM
      1 C1         -0.4910   -2.4474    0.7834 C.3       1 <0>         0.0000
      2 C2         -0.6598    2.1299   -6.2525 C.3       1 <0>         0.0000
      3 C3          6.5454    2.6432   -0.7014 C.3       1 <0>         0.0000
      4 C4          0.1313   -1.9960   -0.5256 C.3       1 <0>         0.0000
      5 C5          0.6464    1.8044   -5.5507 C.3       1 <0>         0.0000
      6 C6          5.5927    1.5435   -1.1348 C.3       1 <0>         0.0000
      7 C7          0.6183   -0.5568   -0.4541 C.3       1 <0>         0.0000
      8 C8          0.4743    1.7286   -4.0414 C.3       1 <0>         0.0000
      9 C9          4.1630    2.0486   -1.2556 C.3       1 <0>         0.0000
     10 O1          1.1736   -0.1969   -1.7111 O.3       1 <0>         0.0000
     11 O2          1.7325    1.4362   -3.4498 O.3       1 <0>         0.0000
     12 O3          3.3265    0.9696   -1.6489 O.3       1 <0>         0.0000
     13 P1          1.7515    1.3146   -1.8316 P.3       1 <0>         0.0000
     14 H1          0.2215   -2.3533    1.6092 H         1 <0>         0.0000
     15 H2         -1.3665   -1.8343    1.0190 H         1 <0>         0.0000
     16 H3         -0.8135   -3.4917    0.7248 H         1 <0>         0.0000
     17 H4         -1.4267    1.3845   -6.0186 H         1 <0>         0.0000
     18 H5         -1.0292    3.1091   -5.9321 H         1 <0>         0.0000
     19 H6         -0.5256    2.1561   -7.3385 H         1 <0>         0.0000
     20 H7          6.5223    3.4815   -1.4050 H         1 <0>         0.0000
     21 H8          6.2646    3.0213    0.2865 H         1 <0>         0.0000
     22 H9          7.5732    2.2712   -0.6433 H         1 <0>         0.0000
     23 H10        -0.5973   -2.0979   -1.3388 H         1 <0>         0.0000
     24 H11         0.9680   -2.6549   -0.7870 H         1 <0>         0.0000
     25 H12         1.4003    2.5616   -5.7975 H         1 <0>         0.0000
     26 H13         1.0427    0.8525   -5.9241 H         1 <0>         0.0000
     27 H14         5.6306    0.7144   -0.4181 H         1 <0>         0.0000
     28 H15         5.9178    1.1261   -2.0953 H         1 <0>         0.0000
     29 H16        -0.2085    0.1249   -0.2303 H         1 <0>         0.0000
     30 H17         1.3907   -0.4434    0.3133 H         1 <0>         0.0000
     31 H18         0.1140    2.6815   -3.6407 H         1 <0>         0.0000
     32 H19        -0.2315    0.9378   -3.7678 H         1 <0>         0.0000
     33 H20         3.8034    2.4370   -0.2974 H         1 <0>         0.0000
     34 H21         4.0902    2.8386   -2.0098 H         1 <0>         0.0000
@<TRIPOS>BOND
     1    1    4 1
     2    2    5 1
     3    3    6 1
     4    4    7 1
     5    5    8 1
     6    6    9 1
     7    7   10 1
     8    8   11 1
     9    9   12 1
    10   10   13 1
    11   11   13 1
    12   12   13 1
    13    1   14 1
    14    1   15 1
    15    1   16 1
    16    2   17 1
    17    2   18 1
    18    2   19 1
    19    3   20 1
    20    3   21 1
    21    3   22 1
    22    4   23 1
    23    4   24 1
    24    5   25 1
    25    5   26 1
    26    6   27 1
    27    6   28 1
    28    7   29 1
    29    7   30 1
    30    8   31 1
    31    8   32 1
    32    9   33 1
    33    9   34 1
@<TRIPOS>MOLECULE
2-methoxyethanamine
   14    13     0     0     0
SMALL
NO_CHARGES

@<TRIPOS>ATOM
      1 C1         -0.5556   -4.0349    1.8945 C.3       1 <0>         0.0000
      2 C2         -0.2448   -0.4884    0.9480 C.3       1 <0>         0.0000
      3 C3         -0.3627   -1.9891    0.7542 C.3       1 <0>         0.0000
      4 N1         -0.1167    0.1741   -0.3701 N.3       1 <0>         0.0000
      5 O1         -0.4496   -2.6238    2.0236 O.3       1 <0>         0.0000
      6 H1         -0.6202   -4.4885    2.8866 H         1 <0>         0.0000
      7 H2          0.3182   -4.4197    1.3625 H         1 <0>         0.0000
      8 H3         -1.4588   -4.2732    1.3279 H         1 <0>         0.0000
      9 H4         -1.1282   -0.0827    1.4514 H         1 <0>         0.0000
     10 H5          0.6451   -0.2493    1.5380 H         1 <0>         0.0000
     11 H6          0.5272   -2.3723    0.2452 H         1 <0>         0.0000
     12 H7         -1.2496   -2.2509    0.1681 H         1 <0>         0.0000
     13 H8          0.3305    1.0543   -0.3882 H         1 <0>         0.0000
     14 H9         -0.6552   -0.1943   -1.1115 H         1 <0>         0.0000
@<TRIPOS>BOND
     1    1    5 1
     2    2    3 1
     3    2    4 1
     4    3    5 1
     5    1    6 1
     6    1    7 1
     7    1    8 1
     8    2    9 1
     9    2   10 1
    10    3   11 1
    11    3   12 1
    12    4   13 1
    13    4   14 1
@<TRIPOS>MOLECULE
piperazine
   16    16     0     0     0
SMALL
NO_CHARGES

@<TRIPOS>ATOM
      1 C1         -0.8416    0.3213   -1.1066 C.3       1 <0>         0.0000
      2 C2         -0.8449   -1.0558   -0.4431 C.3       1 <0>         0.0000
      3 C3          0.8459    1.0594    0.4455 C.3       1 <0>         0.0000
      4 C4          0.8377   -0.3196    1.1048 C.3       1 <0>         0.0000
      5 N1         -0.4512    1.3643   -0.1581 N.3       1 <0>         0.0000
      6 N2          0.4541   -1.3696    0.1575 N.3       1 <0>         0.0000
      7 H1         -0.1625    0.3262   -1.9683 H         1 <0>         0.0000
      8 H2         -1.8451    0.5430   -1.4858 H         1 <0>         0.0000
      9 H3         -1.6308   -1.1074    0.3210 H         1 <0>         0.0000
     10 H4         -1.0789   -1.8174   -1.1949 H         1 <0>         0.0000
     11 H5          1.0754    1.8203    1.1994 H         1 <0>         0.0000
     12 H6          1.6347    1.1125   -0.3155 H         1 <0>         0.0000
     13 H7          1.8392   -0.5410    1.4900 H         1 <0>         0.0000
     14 H8          0.1556   -0.3260    1.9644 H         1 <0>         0.0000
     15 H9         -0.4014    2.2619   -0.6387 H         1 <0>         0.0000
     16 H10         0.3988   -2.2644    0.6428 H         1 <0>         0.0000
@<TRIPOS>BOND
     1    1    2 1
     2    1    5 1
     3    2    6 1
     4    3    4 1
     5    3    5 1
     6    4    6 1
     7    1    7 1
     8    1    8 1
     9    2    9 1
    10    2   10 1
    11    3   11 1
    12    3   12 1
    13    4   13 1
    14    4   14 1
    15    5   15 1
    16    6   16 1
@<TRIPOS>MOLECULE
N,N'-dimethylpiperazine
   22    22     0     0     0
SMALL
NO_CHARGES

@<TRIPOS>ATOM
      1 C1          0.9733   -0.4226   -0.2775 C.3       1 <0>         0.0000
      2 C2          0.7469   -1.4824   -1.3611 C.3       1 <0>         0.0000
      3 C3          2.8769   -1.6606    0.5350 C.3       1 <0>         0.0000
      4 C4          2.6493   -2.7208   -0.5481 C.3       1 <0>         0.0000
      5 C5          1.8318    0.0009    1.9360 C.3       1 <0>         0.0000
      6 C6          1.7938   -3.1419   -2.7630 C.3       1 <0>         0.0000
      7 N1          1.6130   -1.0119    0.9052 N.3       1 <0>         0.0000
      8 N2          2.0113   -2.1302   -1.7310 N.3       1 <0>         0.0000
      9 H1          1.5814    0.3970   -0.6843 H         1 <0>         0.0000
     10 H2          0.0001    0.0003   -0.0003 H         1 <0>         0.0000
     11 H3          0.0163   -2.2224   -1.0069 H         1 <0>         0.0000
     12 H4          0.3122   -0.9898   -2.2394 H         1 <0>         0.0000
     13 H5          3.3116   -2.1531    1.4133 H         1 <0>         0.0000
     14 H6          3.6077   -0.9212    0.1801 H         1 <0>         0.0000
     15 H7          3.6222   -3.1448   -0.8248 H         1 <0>         0.0000
     16 H8          2.0399   -3.5394   -0.1414 H         1 <0>         0.0000
     17 H9          2.3081   -0.4499    2.8105 H         1 <0>         0.0000
     18 H10         0.8787    0.4408    2.2419 H         1 <0>         0.0000
     19 H11         2.4780    0.7957    1.5538 H         1 <0>         0.0000
     20 H12         2.7417   -3.6166   -3.0296 H         1 <0>         0.0000
     21 H13         1.3662   -2.6826   -3.6584 H         1 <0>         0.0000
     22 H14         1.1053   -3.9099   -2.4003 H         1 <0>         0.0000
@<TRIPOS>BOND
     1    1    2 1
     2    1    7 1
     3    2    8 1
     4    3    4 1
     5    3    7 1
     6    4    8 1
     7    5    7 1
     8    6    8 1
     9    1    9 1
    10    1   10 1
    11    2   11 1
    12    2   12 1
    13    3   13 1
    14    3   14 1
    15    4   15 1
    16    4   16 1
    17    5   17 1
    18    5   18 1
    19    5   19 1
    20    6   20 1
    21    6   21 1
    22    6   22 1
@<TRIPOS>MOLECULE
P(OC2H5)3
   25    24     0     0     0
SMALL
NO_CHARGES

@<TRIPOS>ATOM
      1 C1          0.1324   -1.9890   -0.5216 C.3       1 <0>         0.0000
      2 C2          0.6418    1.8048   -5.5440 C.3       1 <0>         0.0000
      3 C3          5.5871    1.5495   -1.1343 C.3       1 <0>         0.0000
      4 C4          0.6183   -0.5568   -0.4541 C.3       1 <0>         0.0000
      5 C5          0.4743    1.7286   -4.0414 C.3       1 <0>         0.0000
      6 C6          4.1630    2.0486   -1.2556 C.3       1 <0>         0.0000
      7 O1          1.1736   -0.1969   -1.7111 O.3       1 <0>         0.0000
      8 O2          1.7325    1.4362   -3.4498 O.3       1 <0>         0.0000
      9 O3          3.3265    0.9696   -1.6489 O.3       1 <0>         0.0000
     10 P1          1.7515    1.3146   -1.8316 P.3       1 <0>         0.0000
     11 H1         -0.6379   -2.1039   -1.2891 H         1 <0>         0.0000
     12 H2          0.9614   -2.6676   -0.7482 H         1 <0>         0.0000
     13 H3         -0.2806   -2.3021    0.4431 H         1 <0>         0.0000
     14 H4          1.3481    2.5933   -5.8184 H         1 <0>         0.0000
     15 H5          1.0049    0.8511   -5.9408 H         1 <0>         0.0000
     16 H6         -0.3188    2.0065   -6.0295 H         1 <0>         0.0000
     17 H7          5.6608    0.7589   -0.3824 H         1 <0>         0.0000
     18 H8          5.9425    1.1593   -2.0937 H         1 <0>         0.0000
     19 H9          6.2599    2.3670   -0.8543 H         1 <0>         0.0000
     20 H10         1.3885   -0.4487    0.3154 H         1 <0>         0.0000
     21 H11        -0.2113    0.1199   -0.2284 H         1 <0>         0.0000
     22 H12        -0.2332    0.9382   -3.7737 H         1 <0>         0.0000
     23 H13         0.1123    2.6826   -3.6465 H         1 <0>         0.0000
     24 H14         4.0963    2.8390   -2.0091 H         1 <0>         0.0000
     25 H15         3.8093    2.4373   -0.2960 H         1 <0>         0.0000
@<TRIPOS>BOND
     1    1    4 1
     2    2    5 1
     3    3    6 1
     4    4    7 1
     5    5    8 1
     6    6    9 1
     7    7   10 1
     8    8   10 1
     9    9   10 1
    10    1   11 1
    11    1   12 1
    12    1   13 1
    13    2   14 1
    14    2   15 1
    15    2   16 1
    16    3   17 1
    17    3   18 1
    18    3   19 1
    19    4   20 1
    20    4   21 1
    21    5   22 1
    22    5   23 1
    23    6   24 1
    24    6   25 1
@<TRIPOS>MOLECULE
glycerol
   14    13     0     0     0
SMALL
NO_CHARGES

@<TRIPOS>ATOM
      1 C1          0.9523    0.5385   -0.0326 C.3       1 <0>         0.0000
      2 C2          0.9856    0.2573   -2.5348 C.3       1 <0>         0.0000
      3 C3          1.1440    1.2331   -1.3744 C.3       1 <0>         0.0000
      4 O1          1.1387    1.4891    1.0107 O.3       1 <0>         0.0000
      5 O2          1.1659    0.9422   -3.7700 O.3       1 <0>         0.0000
      6 O3          2.4671    1.7733   -1.4064 O.3       1 <0>         0.0000
      7 H1          1.6854   -0.2628    0.1078 H         1 <0>         0.0000
      8 H2         -0.0587    0.1293    0.0585 H         1 <0>         0.0000
      9 H3         -0.0085   -0.2005   -2.5434 H         1 <0>         0.0000
     10 H4          1.7391   -0.5353   -2.4895 H         1 <0>         0.0000
     11 H5          0.4552    2.0798   -1.4720 H         1 <0>         0.0000
     12 H6          1.0096    1.0133    1.8463 H         1 <0>         0.0000
     13 H7          1.0559    0.2819   -4.4722 H         1 <0>         0.0000
     14 H8          3.0699    1.0224   -1.3025 H         1 <0>         0.0000
@<TRIPOS>BOND
     1    1    3 1
     2    1    4 1
     3    2    3 1
     4    2    5 1
     5    3    6 1
     6    1    7 1
     7    1    8 1
     8    2    9 1
     9    2   10 1
    10    3   11 1
    11    4   12 1
    12    5   13 1
    13    6   14 1
@<TRIPOS>MOLECULE
P(OCH3)3
   16    15     0     0     0
SMALL
NO_CHARGES

@<TRIPOS>ATOM
      1 C1          0.6183   -0.5568   -0.4541 C.3       1 <0>         0.0000
      2 C2          0.4743    1.7286   -4.0414 C.3       1 <0>         0.0000
      3 C3          4.1630    2.0486   -1.2556 C.3       1 <0>         0.0000
      4 O1          1.1736   -0.1969   -1.7111 O.3       1 <0>         0.0000
      5 O2          1.7325    1.4362   -3.4498 O.3       1 <0>         0.0000
      6 O3          3.3265    0.9696   -1.6489 O.3       1 <0>         0.0000
      7 P1          1.7515    1.3146   -1.8316 P.3       1 <0>         0.0000
      8 H1          0.2646   -1.5900   -0.4935 H         1 <0>         0.0000
      9 H2         -0.2106    0.1143   -0.2153 H         1 <0>         0.0000
     10 H3          1.3900   -0.4673    0.3142 H         1 <0>         0.0000
     11 H4          0.5858    1.7856   -5.1269 H         1 <0>         0.0000
     12 H5          0.0999    2.6789   -3.6525 H         1 <0>         0.0000
     13 H6         -0.2300    0.9318   -3.7910 H         1 <0>         0.0000
     14 H7          5.1938    1.6972   -1.1655 H         1 <0>         0.0000
     15 H8          3.8180    2.4482   -0.2987 H         1 <0>         0.0000
     16 H9          4.1128    2.8324   -2.0150 H         1 <0>         0.0000
@<TRIPOS>BOND
     1    1    4 1
     2    2    5 1
     3    3    6 1
     4    4    7 1
     5    5    7 1
     6    6    7 1
     7    1    8 1
     8    1    9 1
     9    1   10 1
    10    2   11 1
    11    2   12 1
    12    2   13 1
    13    3   14 1
    14    3   15 1
    15    3   16 1
@<TRIPOS>MOLECULE
ethylenediamine
   12    11     0     0     0
SMALL
NO_CHARGES

@<TRIPOS>ATOM
      1 C1          0.6937    0.1987    0.8229 C.3       1 <0>         0.0000
      2 C2         -0.0792    0.5157    2.0920 C.3       1 <0>         0.0000
      3 N1          1.5211   -0.9687    0.9686 N.3       1 <0>         0.0000
      4 N2         -0.9205    1.6713    1.9360 N.3       1 <0>         0.0000
      5 H1          1.3469    1.0287    0.5352 H         1 <0>         0.0000
      6 H2          0.0000    0.0000    0.0000 H         1 <0>         0.0000
      7 H3         -0.7307   -0.3224    2.3581 H         1 <0>         0.0000
      8 H4          0.5956    0.7109    2.9317 H         1 <0>         0.0000
      9 H5          2.0113   -1.1181    1.8360 H         1 <0>         0.0000
     10 H6          1.7613   -1.5055    0.1504 H         1 <0>         0.0000
     11 H7         -1.1879    2.1985    2.7521 H         1 <0>         0.0000
     12 H8         -1.3931    1.8202    1.0584 H         1 <0>         0.0000
@<TRIPOS>BOND
     1    1    2 1
     2    1    3 1
     3    2    4 1
     4    1    5 1
     5    1    6 1
     6    2    7 1
     7    2    8 1
     8    3    9 1
     9    3   10 1
    10    4   11 1
    11    4   12 1
@<TRIPOS>MOLECULE
1,3-dioxolane
   10     9     0     0     0
SMALL
NO_CHARGES

@<TRIPOS>ATOM
      1 C1         -0.7892   -0.1079    1.0274 C.3       1 <0>         0.0000
      2 C2          0.3217    0.1705   -1.0391 C.3       1 <0>         0.0000
      3 O1          1.1227   -0.9979   -0.9366 O.3       1 <0>         0.0000
      4 O2         -0.9335    0.0449   -0.3781 O.3       1 <0>         0.0000
      5 H1         -1.7760   -0.2000    1.4879 H         1 <0>         0.0000
      6 H2         -0.2637    0.7585    1.4370 H         1 <0>         0.0000
      7 H3         -0.2098   -1.0119    1.2291 H         1 <0>         0.0000
      8 H4          0.8768    1.0431   -0.6757 H         1 <0>         0.0000
      9 H5          0.1133    0.3283   -2.1012 H         1 <0>         0.0000
     10 H6          1.9517   -0.8212   -1.4125 H         1 <0>         0.0000
@<TRIPOS>BOND
     1    1    4 1
     2    2    3 1
     3    2    4 1
     4    1    5 1
     5    1    6 1
     6    1    7 1
     7    2    8 1
     8    2    9 1
     9    3   10 1
@<TRIPOS>MOLECULE
trans-N-methylformamide
    9     8     0     0     0
SMALL
NO_CHARGES

@<TRIPOS>ATOM
      1 C1         -1.7241   -0.9560    2.4856 C.2       1 <0>         0.0000
      2 C2         -0.7497   -0.7672    0.2086 C.3       1 <0>         0.0000
      3 N1         -1.5904   -0.2958    1.2845 N.am      1 <0>         0.0000
      4 O1         -1.1859   -1.9987    2.8350 O.2       1 <0>         0.0000
      5 H1         -2.4145   -0.4116    3.1509 H         1 <0>         0.0000
      6 H2          0.2576   -0.3549    0.3106 H         1 <0>         0.0000
      7 H3         -1.1608   -0.4573   -0.7559 H         1 <0>         0.0000
      8 H4         -0.6868   -1.8586    0.2284 H         1 <0>         0.0000
      9 H5         -2.1094    0.5665    1.1481 H         1 <0>         0.0000
@<TRIPOS>BOND
     1    1    3 am
     2    1    4 2
     3    2    3 1
     4    1    5 1
     5    2    6 1
     6    2    7 1
     7    2    8 1
     8    3    9 1
@<TRIPOS>MOLECULE
bis-2-chloroethyl sulfide
    9     8     0     0     0
SMALL
NO_CHARGES

@<TRIPOS>ATOM
      1 C1          0.2588    0.1715    0.7041 C.3       1 <0>         0.0000
      2 C2         -0.8861   -0.1055   -0.2720 C.3       1 <0>         0.0000
      3 S1          1.8900   -0.4519    0.1814 S.3       1 <0>         0.0000
      4 Cl1        -0.6360    0.6879   -1.8479 Cl        1 <0>         0.0000
      5 Cl2        -1.1734   -1.8497   -0.4980 Cl        1 <0>         0.0000
      6 H1          0.3550    1.2510    0.8657 H         1 <0>         0.0000
      7 H2          0.0322   -0.2769    1.6778 H         1 <0>         0.0000
      8 H3         -1.8117    0.3088    0.1385 H         1 <0>         0.0000
      9 H4          2.5523   -0.0175    1.2612 H         1 <0>         0.0000
@<TRIPOS>BOND
     1    1    2 1
     2    1    3 1
     3    2    4 1
     4    2    5 1
     5    1    6 1
     6    1    7 1
     7    2    8 1
     8    3    9 1
