@<TRIPOS>MOLECULE
propanenitrile
    9     8     1     0     0
SMALL
No Charge or Current Charge


@<TRIPOS>ATOM
      1 C1          1.8890   -1.3260    2.5140 c1        1 MOL      0.215200
      2 C2          0.5570   -0.7930    0.5090 c3        1 MOL     -0.090900
      3 C3          1.1380   -0.2770    1.8140 c3        1 MOL     -0.028800
      4 N1          2.4840   -2.1530    3.0690 n1        1 MOL     -0.374500
      5 H1         -0.1280   -1.6310    0.6850 hc        1 MOL      0.045600
      6 H2         -0.0000    0.0000    0.0000 hc        1 MOL      0.045600
      7 H3          1.3470   -1.1410   -0.1650 hc        1 MOL      0.045600
      8 H4          0.3270    0.0880    2.4550 hc        1 MOL      0.071100
      9 H5          1.7950    0.5750    1.6090 hc        1 MOL      0.071100
@<TRIPOS>BOND
     1    1    3 1   
     2    1    4 3   
     3    2    3 1   
     4    2    5 1   
     5    2    6 1   
     6    2    7 1   
     7    3    8 1   
     8    3    9 1   
@<TRIPOS>SUBSTRUCTURE
     1 R0_         1 TEMP              0 ****  ****    0 ROOT
