@<TRIPOS>MOLECULE
tetrafluoromethane
    5     4     1     0     0
SMALL
No Charge or Current Charge


@<TRIPOS>ATOM
      1 C1         -0.9410   -0.8520   -0.4400 c3        1 MOL      0.884900
      2 F1          0.0000    0.0000    0.0000 f         1 MOL     -0.221200
      3 F2         -0.4520   -2.1030   -0.4320 f         1 MOL     -0.221200
      4 F3         -1.2970   -0.5180   -1.6920 f         1 MOL     -0.221200
      5 F4         -2.0160   -0.7860    0.3640 f         1 MOL     -0.221200
@<TRIPOS>BOND
     1    1    2 1   
     2    1    3 1   
     3    1    4 1   
     4    1    5 1   
@<TRIPOS>SUBSTRUCTURE
     1 R0_         1 TEMP              0 ****  ****    0 ROOT
