@<TRIPOS>MOLECULE
1_nitropropane
   13    12     1     0     0
SMALL
No Charge or Current Charge


@<TRIPOS>ATOM
      1 C1         -0.2800   -0.7280    0.7680 c3        1 MOL     -0.099800
      2 C2          0.5920   -0.5780    2.0040 c3        1 MOL     -0.088800
      3 C3          0.4520    0.8070    2.6090 c3        1 MOL     -0.075200
      4 N1          1.2710    0.8520    3.8320 no        1 MOL      0.228500
      5 O1          0.7260    0.5470    4.9070 o         1 MOL     -0.211100
      6 O2          2.4660    1.1770    3.7110 o         1 MOL     -0.211100
      7 H1         -1.3370   -0.5810    1.0130 hc        1 MOL      0.045800
      8 H2          0.0000   -0.0000    0.0000 hc        1 MOL      0.045800
      9 H3         -0.1660   -1.7310    0.3430 hc        1 MOL      0.045800
     10 H4          1.6370   -0.7710    1.7330 hc        1 MOL      0.066900
     11 H5          0.3110   -1.3440    2.7380 hc        1 MOL      0.066900
     12 H6         -0.5740    1.0310    2.9140 h1        1 MOL      0.093200
     13 H7          0.8310    1.5930    1.9510 h1        1 MOL      0.093200
@<TRIPOS>BOND
     1    1    2 1   
     2    2    3 1   
     3    3    4 1   
     4    4    5 1   
     5    4    6 1   
     6    1    7 1   
     7    1    8 1   
     8    1    9 1   
     9    2   10 1   
    10    2   11 1   
    11    3   12 1   
    12    3   13 1   
@<TRIPOS>SUBSTRUCTURE
     1 R0_         1 TEMP              0 ****  ****    0 ROOT
