@<TRIPOS>MOLECULE
E_12_dichloroethene
    6     5     1     0     0
SMALL
No Charge or Current Charge


@<TRIPOS>ATOM
      1 C1          2.0180   -0.6860   -0.1990 c2        1 MOL     -0.070700
      2 C2          0.7540   -0.5140   -0.5800 c2        1 MOL     -0.070700
      3 Cl1         2.6210   -0.0980    1.2930 cl        1 MOL     -0.094600
      4 Cl2         0.1510   -1.1010   -2.0720 cl        1 MOL     -0.094600
      5 H1          2.7720   -1.2010   -0.7780 h4        1 MOL      0.165300
      6 H2          0.0000    0.0000   -0.0000 h4        1 MOL      0.165300
@<TRIPOS>BOND
     1    1    2 2   
     2    1    3 1   
     3    2    4 1   
     4    1    5 1   
     5    2    6 1   
@<TRIPOS>SUBSTRUCTURE
     1 R0_         1 TEMP              0 ****  ****    0 ROOT
