@<TRIPOS>MOLECULE
1,2,3,4,7,8-hexachlorodibenzo-p-dioxin
   22    24     1     0     0
SMALL
No Charge or Current Charge


@<TRIPOS>ATOM
      1 C1         -3.1490    0.4150    1.2200 ca        1 MOL     -0.102000
      2 C2         -1.4370   -1.5820    0.2690 ca        1 MOL     -0.102000
      3 C3         -3.5800   -0.9100    1.1630 ca        1 MOL      0.067600
      4 C4         -2.7270   -1.9050    0.6890 ca        1 MOL      0.069200
      5 C5         -5.2390   -2.4980    1.5120 ca        1 MOL      0.082200
      6 C6         -4.3860   -3.4940    1.0380 ca        1 MOL      0.081900
      7 C7         -1.8580    0.7400    0.8000 ca        1 MOL      0.020000
      8 C8         -1.0040   -0.2570    0.3260 ca        1 MOL      0.020700
      9 C9         -6.5290   -2.8210    1.9320 ca        1 MOL      0.029700
     10 C10        -4.8170   -4.8180    0.9820 ca        1 MOL      0.029500
     11 C11        -6.9620   -4.1460    1.8750 ca        1 MOL      0.021400
     12 C12        -6.1070   -5.1430    1.4010 ca        1 MOL      0.021200
     13 O1         -4.8560   -1.1830    1.5850 os        1 MOL     -0.200600
     14 O2         -3.1090   -3.2200    0.6160 os        1 MOL     -0.200500
     15 Cl1        -1.3750    2.3980    0.8910 cl        1 MOL     -0.049600
     16 Cl2         0.6060    0.0870   -0.2050 cl        1 MOL     -0.049900
     17 Cl3        -7.5650   -1.5540    2.5150 cl        1 MOL     -0.019300
     18 Cl4        -3.7250   -6.0330    0.3860 cl        1 MOL     -0.019400
     19 Cl5        -8.5740   -4.5510    2.3990 cl        1 MOL     -0.027100
     20 Cl6        -6.6460   -6.7990    1.3310 cl        1 MOL     -0.027400
     21 H1         -3.8230    1.1830    1.5910 ha        1 MOL      0.177100
     22 H2         -0.7790   -2.3660   -0.1000 ha        1 MOL      0.177500
@<TRIPOS>BOND
     1    1    3 ar  
     2    1    7 ar  
     3    2    4 ar  
     4    2    8 ar  
     5    3    4 ar  
     6    3   13 ar  
     7    4   14 ar  
     8    5    6 ar  
     9    5    9 ar  
    10    5   13 ar  
    11    6   10 ar  
    12    6   14 ar  
    13    7    8 ar  
    14    7   15 1   
    15    8   16 1   
    16    9   11 ar  
    17    9   17 1   
    18   10   12 ar  
    19   10   18 1   
    20   11   12 ar  
    21   11   19 1   
    22   12   20 1   
    23    1   21 1   
    24    2   22 1   
@<TRIPOS>SUBSTRUCTURE
     1 MOL         1 TEMP              0 ****  ****    0 ROOT
