@<TRIPOS>MOLECULE
trimethoxymethylbenzene
   27    27     1     0     0
SMALL
No Charge or Current Charge


@<TRIPOS>ATOM
      1 C1         -1.5330    4.0880   -3.2320 ca        1 MOL     -0.113700
      2 C2         -1.3300    2.7190   -3.0570 ca        1 MOL     -0.142700
      3 C3         -1.4260    4.9540   -2.1430 ca        1 MOL     -0.142700
      4 C4         -1.0210    2.2160   -1.7940 ca        1 MOL     -0.092000
      5 C5         -1.1170    4.4500   -0.8790 ca        1 MOL     -0.092000
      6 C6         -0.9240    3.0960   -0.7440 ca        1 MOL     -0.108100
      7 C7          1.7960    2.7090    0.1680 c3        1 MOL      0.130300
      8 C8         -2.9020    2.2160    1.2140 c3        1 MOL      0.130300
      9 C9         -0.1140    3.3280    2.9010 c3        1 MOL      0.130300
     10 C10        -0.5850    2.5420    0.6460 c3        1 MOL      0.565000
     11 O1          0.7050    1.8840    0.5670 os        1 MOL     -0.443800
     12 O2         -1.6070    1.6330    1.1030 os        1 MOL     -0.443800
     13 O3         -0.4330    3.6620    1.5540 os        1 MOL     -0.443800
     14 H1         -1.7740    4.4810   -4.2150 ha        1 MOL      0.132500
     15 H2         -1.4130    2.0460   -3.9050 ha        1 MOL      0.134500
     16 H3         -1.5840    6.0190   -2.2790 ha        1 MOL      0.134500
     17 H4         -0.8650    1.1470   -1.6670 ha        1 MOL      0.148700
     18 H5         -1.0360    5.1310   -0.0370 ha        1 MOL      0.148700
     19 H6          2.7300    2.2890    0.5490 h1        1 MOL      0.040900
     20 H7          1.6520    3.7190    0.5600 h1        1 MOL      0.040900
     21 H8          1.8330    2.7460   -0.9230 h1        1 MOL      0.040900
     22 H9         -2.8240    3.3010    1.1070 h1        1 MOL      0.040900
     23 H10        -3.3330    1.9650    2.1860 h1        1 MOL      0.040900
     24 H11        -3.5390    1.8200    0.4200 h1        1 MOL      0.040900
     25 H12         0.9210    3.6070    3.1110 h1        1 MOL      0.040900
     26 H13        -0.2500    2.2540    3.0530 h1        1 MOL      0.040900
     27 H14        -0.7800    3.8760    3.5710 h1        1 MOL      0.040900
@<TRIPOS>BOND
     1    1    2 ar  
     2    1    3 ar  
     3    2    4 ar  
     4    3    5 ar  
     5    4    6 ar  
     6    5    6 ar  
     7    6   10 1   
     8    7   11 1   
     9    8   12 1   
    10    9   13 1   
    11   10   11 1   
    12   10   12 1   
    13   10   13 1   
    14    1   14 1   
    15    2   15 1   
    16    3   16 1   
    17    4   17 1   
    18    5   18 1   
    19    7   19 1   
    20    7   20 1   
    21    7   21 1   
    22    8   22 1   
    23    8   23 1   
    24    8   24 1   
    25    9   25 1   
    26    9   26 1   
    27    9   27 1   
@<TRIPOS>SUBSTRUCTURE
     1 R0_         1 TEMP              0 ****  ****    0 ROOT
