@<TRIPOS>MOLECULE
hept_1_ene
   21    20     1     0     0
SMALL
No Charge or Current Charge


@<TRIPOS>ATOM
      1 C1         -3.6720   -1.4200   -0.8260 c2        1 MOL     -0.224700
      2 C2         -2.7760   -2.3790   -0.5670 c2        1 MOL     -0.164000
      3 C3          0.7470   -3.8210    4.5460 c3        1 MOL     -0.089600
      4 C4         -1.5980   -2.2030    0.3450 c3        1 MOL     -0.049000
      5 C5         -0.4540   -3.9820    3.6270 c3        1 MOL     -0.077800
      6 C6         -1.6080   -3.1710    1.5320 c3        1 MOL     -0.072600
      7 C7         -0.4180   -2.9760    2.4760 c3        1 MOL     -0.077400
      8 H1         -4.5100   -1.5910   -1.4930 ha        1 MOL      0.110400
      9 H2         -3.5750   -0.4410   -0.3700 ha        1 MOL      0.110400
     10 H3         -2.8940   -3.3460   -1.0500 ha        1 MOL      0.117700
     11 H4          0.7720   -2.8190    4.9870 hc        1 MOL      0.031600
     12 H5          1.6820   -3.9800    4.0000 hc        1 MOL      0.031600
     13 H6          0.7010   -4.5500    5.3610 hc        1 MOL      0.031600
     14 H7         -0.6890   -2.3780   -0.2430 hc        1 MOL      0.044400
     15 H8         -1.5370   -1.1720    0.7130 hc        1 MOL      0.044400
     16 H9         -1.3730   -3.8470    4.2100 hc        1 MOL      0.037300
     17 H10        -0.4680   -5.0030    3.2300 hc        1 MOL      0.037300
     18 H11        -1.5910   -4.1960    1.1390 hc        1 MOL      0.040200
     19 H12        -2.5460   -3.0640    2.0920 hc        1 MOL      0.040200
     20 H13        -0.4240   -1.9590    2.8850 hc        1 MOL      0.039200
     21 H14         0.5180   -3.0950    1.9150 hc        1 MOL      0.039200
@<TRIPOS>BOND
     1    1    2 2   
     2    2    4 1   
     3    3    5 1   
     4    4    6 1   
     5    5    7 1   
     6    6    7 1   
     7    1    8 1   
     8    1    9 1   
     9    2   10 1   
    10    3   11 1   
    11    3   12 1   
    12    3   13 1   
    13    4   14 1   
    14    4   15 1   
    15    5   16 1   
    16    5   17 1   
    17    6   18 1   
    18    6   19 1   
    19    7   20 1   
    20    7   21 1   
@<TRIPOS>SUBSTRUCTURE
     1 R0_         1 TEMP              0 ****  ****    0 ROOT
