@<TRIPOS>MOLECULE
ethanamide
    9     8     1     0     0
SMALL
No Charge or Current Charge


@<TRIPOS>ATOM
      1 C1         -1.1140   -1.7340    0.5270 c         1 MOL      0.651900
      2 C2          0.0090   -1.0710   -0.2220 c3        1 MOL     -0.169700
      3 N1         -0.6960   -2.4990    1.5900 n         1 MOL     -0.682400
      4 O1         -2.2910   -1.5800    0.2100 o         1 MOL     -0.611200
      5 H1         -0.1380   -1.2230   -1.2950 hc        1 MOL      0.063900
      6 H2          0.0000    0.0000    0.0000 hc        1 MOL      0.063900
      7 H3          0.9820   -1.4820    0.0570 hc        1 MOL      0.063900
      8 H4         -1.3940   -2.9790    2.1490 hn        1 MOL      0.309900
      9 H5          0.2820   -2.6030    1.8380 hn        1 MOL      0.309900
@<TRIPOS>BOND
     1    1    2 1   
     2    1    3 1   
     3    1    4 2   
     4    2    5 1   
     5    2    6 1   
     6    2    7 1   
     7    3    8 1   
     8    3    9 1   
@<TRIPOS>SUBSTRUCTURE
     1 R0_         1 TEMP              0 ****  ****    0 ROOT
