@<TRIPOS>MOLECULE
33_dimethylbutan_2_one
   19    18     1     0     0
SMALL
No Charge or Current Charge


@<TRIPOS>ATOM
      1 C1         -1.9540   -0.8990   -0.0330 c         1 MOL      0.565400
      2 C2         -0.6290   -0.3790   -0.5370 c3        1 MOL     -0.196200
      3 C3         -1.8400    0.0710    2.2690 c3        1 MOL     -0.081300
      4 C4         -1.1120   -2.3070    1.8940 c3        1 MOL     -0.081300
      5 C5         -3.5280   -1.7020    1.7550 c3        1 MOL     -0.081300
      6 C6         -2.0980   -1.2120    1.4690 c3        1 MOL     -0.150000
      7 O1         -2.8920   -1.0440   -0.8210 o         1 MOL     -0.529100
      8 H1         -0.7440   -0.0320   -1.5680 hc        1 MOL      0.062500
      9 H2         -0.2940    0.4660    0.0690 hc        1 MOL      0.062500
     10 H3          0.1160   -1.1780   -0.5200 hc        1 MOL      0.062500
     11 H4         -0.8110    0.4260    2.1450 hc        1 MOL      0.040700
     12 H5         -2.5030    0.8800    1.9420 hc        1 MOL      0.040700
     13 H6         -2.0060   -0.0890    3.3400 hc        1 MOL      0.040700
     14 H7         -0.0720   -1.9740    1.8040 hc        1 MOL      0.040700
     15 H8         -1.2260   -3.2030    1.2720 hc        1 MOL      0.040700
     16 H9         -1.2690   -2.5990    2.9390 hc        1 MOL      0.040700
     17 H10        -3.7610   -2.6000    1.1710 hc        1 MOL      0.040700
     18 H11        -4.2720   -0.9400    1.4960 hc        1 MOL      0.040700
     19 H12        -3.6600   -1.9470    2.8150 hc        1 MOL      0.040700
@<TRIPOS>BOND
     1    1    2 1   
     2    1    6 1   
     3    1    7 2   
     4    3    6 1   
     5    4    6 1   
     6    5    6 1   
     7    2    8 1   
     8    2    9 1   
     9    2   10 1   
    10    3   11 1   
    11    3   12 1   
    12    3   13 1   
    13    4   14 1   
    14    4   15 1   
    15    4   16 1   
    16    5   17 1   
    17    5   18 1   
    18    5   19 1   
@<TRIPOS>SUBSTRUCTURE
     1 R0_         1 TEMP              0 ****  ****    0 ROOT
