@<TRIPOS>MOLECULE
octanal
   25    24     1     0     0
SMALL
No Charge or Current Charge


@<TRIPOS>ATOM
      1 C1         -2.3560    7.9470    3.6760 c         1 MOL      0.560700
      2 C2         -0.8550   -0.2440    0.5420 c3        1 MOL     -0.089900
      3 C3         -1.4530    6.7620    3.4270 c3        1 MOL     -0.198600
      4 C4         -1.7810    0.9400    0.7720 c3        1 MOL     -0.078200
      5 C5         -2.1480    5.6520    2.6420 c3        1 MOL     -0.072300
      6 C6         -1.0730    2.0680    1.5220 c3        1 MOL     -0.076700
      7 C7         -1.2760    4.4100    2.4440 c3        1 MOL     -0.079400
      8 C8         -1.9970    3.2710    1.7220 c3        1 MOL     -0.076100
      9 O1         -3.5290    8.0190    3.3240 o         1 MOL     -0.524100
     10 H1         -1.8820    8.7880    4.2100 h4        1 MOL     -0.007700
     11 H2          0.0160    0.0490   -0.0530 hc        1 MOL      0.031800
     12 H3         -1.3820   -1.0380    0.0050 hc        1 MOL      0.031800
     13 H4         -0.4990   -0.6540    1.4920 hc        1 MOL      0.031800
     14 H5         -1.1250    6.3910    4.4030 hc        1 MOL      0.069500
     15 H6         -0.5770    7.1350    2.8880 hc        1 MOL      0.069500
     16 H7         -2.6560    0.6070    1.3410 hc        1 MOL      0.038300
     17 H8         -2.1430    1.3060   -0.1960 hc        1 MOL      0.038300
     18 H9         -2.4740    6.0350    1.6670 hc        1 MOL      0.045200
     19 H10        -3.0590    5.3510    3.1740 hc        1 MOL      0.045200
     20 H11        -0.7300    1.7010    2.4980 hc        1 MOL      0.038800
     21 H12        -0.1810    2.3780    0.9630 hc        1 MOL      0.038800
     22 H13        -0.3670    4.6830    1.8930 hc        1 MOL      0.042300
     23 H14        -0.9520    4.0590    3.4320 hc        1 MOL      0.042300
     24 H15        -2.8770    2.9650    2.3010 hc        1 MOL      0.039400
     25 H16        -2.3550    3.6130    0.7440 hc        1 MOL      0.039400
@<TRIPOS>BOND
     1    1    3 1   
     2    1    9 2   
     3    2    4 1   
     4    3    5 1   
     5    4    6 1   
     6    5    7 1   
     7    6    8 1   
     8    7    8 1   
     9    1   10 1   
    10    2   11 1   
    11    2   12 1   
    12    2   13 1   
    13    3   14 1   
    14    3   15 1   
    15    4   16 1   
    16    4   17 1   
    17    5   18 1   
    18    5   19 1   
    19    6   20 1   
    20    6   21 1   
    21    7   22 1   
    22    7   23 1   
    23    8   24 1   
    24    8   25 1   
@<TRIPOS>SUBSTRUCTURE
     1 R0_         1 TEMP              0 ****  ****    0 ROOT
