@<TRIPOS>MOLECULE
CUP08043_AM1BCC_v1_0
   32    32     1     0     0
SMALL
No Charge or Current Charge


@<TRIPOS>ATOM
      1 C1         -3.1320   -1.4300   -6.1120 ca        1 MOL     -0.048300
      2 C2         -3.4810    0.9620   -5.8670 ca        1 MOL     -0.048300
      3 C3         -2.1970   -1.4000   -5.0710 ca        1 MOL     -0.147100
      4 C4         -2.5470    0.9800   -4.8280 ca        1 MOL     -0.147100
      5 C5         -3.7720   -0.2480   -6.5070 ca        1 MOL     -0.179500
      6 C6         -1.9090   -0.1980   -4.4260 ca        1 MOL      0.175100
      7 C7          1.5850    1.3180   -0.3370 c3        1 MOL     -0.117000
      8 C8          2.5000   -3.1630   -4.5820 c3        1 MOL     -0.117000
      9 C9          0.4090    0.4610   -0.7590 c3        1 MOL      0.166100
     10 C10         1.6210   -2.8740   -3.3830 c3        1 MOL      0.166100
     11 N1         -4.7500   -0.2780   -7.6010 no        1 MOL      0.315500
     12 O1         -4.9780   -1.3700   -8.1420 o         1 MOL     -0.203200
     13 O2         -5.2880    0.7910   -7.9220 o         1 MOL     -0.203200
     14 O3         -1.0140   -0.0600   -3.4040 os        1 MOL     -0.464300
     15 O4          0.8440   -0.4330   -1.7700 os        1 MOL     -0.533000
     16 O5          0.6410   -1.9230   -3.7630 os        1 MOL     -0.533000
     17 P1         -0.2760   -1.2560   -2.6050 p5        1 MOL      1.183500
     18 S1         -1.3900   -2.4610   -1.5690 s         1 MOL     -0.536100
     19 H1         -3.3450   -2.3790   -6.6020 ha        1 MOL      0.178800
     20 H2         -3.9660    1.8910   -6.1610 ha        1 MOL      0.178800
     21 H3         -1.7120   -2.3320   -4.7950 ha        1 MOL      0.162500
     22 H4         -2.3170    1.9190   -4.3290 ha        1 MOL      0.162500
     23 H5          2.4040    0.6930    0.0350 hc        1 MOL      0.053700
     24 H6          1.9770    1.8810   -1.1900 hc        1 MOL      0.053700
     25 H7          1.2940    2.0220    0.4470 hc        1 MOL      0.053700
     26 H8          1.9020   -3.5430   -5.4170 hc        1 MOL      0.053700
     27 H9          2.9890   -2.2470   -4.9320 hc        1 MOL      0.053700
     28 H10         3.2690   -3.9000   -4.3350 hc        1 MOL      0.053700
     29 H11        -0.3980    1.0950   -1.1380 h1        1 MOL      0.066400
     30 H12         0.0400   -0.1120    0.0970 h1        1 MOL      0.066400
     31 H13         2.2280   -2.4830   -2.5610 h1        1 MOL      0.066400
     32 H14         1.1270   -3.7930   -3.0540 h1        1 MOL      0.066400
@<TRIPOS>BOND
     1    1    3 ar  
     2    1    5 ar  
     3    2    4 ar  
     4    2    5 ar  
     5    3    6 ar  
     6    4    6 ar  
     7    5   11 1   
     8    6   14 1   
     9    7    9 1   
    10    8   10 1   
    11    9   15 1   
    12   10   16 1   
    13   11   12 1   
    14   11   13 1   
    15   14   17 1   
    16   15   17 1   
    17   16   17 1   
    18   17   18 2   
    19    1   19 1   
    20    2   20 1   
    21    3   21 1   
    22    4   22 1   
    23    7   23 1   
    24    7   24 1   
    25    7   25 1   
    26    8   26 1   
    27    8   27 1   
    28    8   28 1   
    29    9   29 1   
    30    9   30 1   
    31   10   31 1   
    32   10   32 1   
@<TRIPOS>SUBSTRUCTURE
     1 R0_         1 TEMP              0 ****  ****    0 ROOT
