@<TRIPOS>MOLECULE
3_cyanopyridine
   12    12     1     0     0
SMALL
No Charge or Current Charge


@<TRIPOS>ATOM
      1 C1          2.7210   -0.3120    3.7040 cg        1 MOL      0.232000
      2 C2          0.2060   -0.4420    0.9680 ca        1 MOL     -0.251000
      3 C3          1.3350   -0.0800    1.6950 ca        1 MOL     -0.054100
      4 C4         -0.6460   -1.3850    1.5200 ca        1 MOL      0.416200
      5 C5          0.6600   -1.5970    3.3980 ca        1 MOL      0.436000
      6 C6          1.5730   -0.6640    2.9340 ca        1 MOL     -0.136000
      7 N1          3.6590   -0.0260    4.3330 n1        1 MOL     -0.350200
      8 N2         -0.4480   -1.9740    2.7210 nb        1 MOL     -0.663400
      9 H1         -0.0000   -0.0010   -0.0010 ha        1 MOL      0.152300
     10 H2          2.0190    0.6570    1.2840 ha        1 MOL      0.152000
     11 H3         -1.5400   -1.7010    0.9930 h4        1 MOL      0.029800
     12 H4          0.7880   -2.0880    4.3590 h4        1 MOL      0.036500
@<TRIPOS>BOND
     1    1    6 1   
     2    1    7 3   
     3    2    3 ar  
     4    2    4 ar  
     5    3    6 ar  
     6    4    8 ar  
     7    5    6 ar  
     8    5    8 ar  
     9    2    9 1   
    10    3   10 1   
    11    4   11 1   
    12    5   12 1   
@<TRIPOS>SUBSTRUCTURE
     1 R0_         1 TEMP              0 ****  ****    0 ROOT
