@<TRIPOS>MOLECULE
3_formylpyridine
   13    13     1     0     0
SMALL
No Charge or Current Charge


@<TRIPOS>ATOM
      1 C1          0.2060   -0.4420    0.9680 ca        1 MOL     -0.260900
      2 C2          1.3350   -0.0800    1.6950 ca        1 MOL     -0.042500
      3 C3         -0.6460   -1.3850    1.5200 ca        1 MOL      0.423700
      4 C4          0.6600   -1.5970    3.3980 ca        1 MOL      0.445400
      5 C5          1.5730   -0.6640    2.9340 ca        1 MOL     -0.315300
      6 C6          2.7430   -0.3060    3.7180 c         1 MOL      0.577600
      7 N1         -0.4480   -1.9740    2.7210 nb        1 MOL     -0.672600
      8 O1          2.9920   -0.7990    4.8230 o         1 MOL     -0.520400
      9 H1         -0.0000    0.0000    0.0000 ha        1 MOL      0.149700
     10 H2          2.0210    0.6570    1.2880 ha        1 MOL      0.150900
     11 H3         -1.5400   -1.7010    0.9930 h4        1 MOL      0.027100
     12 H4          0.7920   -2.0860    4.3590 h4        1 MOL      0.035300
     13 H5          3.4370    0.4490    3.2880 h4        1 MOL      0.002000
@<TRIPOS>BOND
     1    1    2 ar  
     2    1    3 ar  
     3    2    5 ar  
     4    3    7 ar  
     5    4    5 ar  
     6    4    7 ar  
     7    5    6 1   
     8    6    8 2   
     9    1    9 1   
    10    2   10 1   
    11    3   11 1   
    12    4   12 1   
    13    6   13 1   
@<TRIPOS>SUBSTRUCTURE
     1 R0_         1 TEMP              0 ****  ****    0 ROOT
