@<TRIPOS>MOLECULE
2_methylbutan_2_ol
   18    17     1     0     0
SMALL
No Charge or Current Charge


@<TRIPOS>ATOM
      1 C1         -0.6450    0.3350    0.8030 c3        1 MOL     -0.088900
      2 C2         -2.1690   -0.4440   -1.7720 c3        1 MOL     -0.120100
      3 C3         -4.0810    0.9470   -0.9520 c3        1 MOL     -0.120100
      4 C4         -1.8900    1.0450    0.2810 c3        1 MOL     -0.063800
      5 C5         -2.8430    0.1480   -0.5330 c3        1 MOL      0.149900
      6 O1         -3.2780   -0.9430    0.2800 oh        1 MOL     -0.602900
      7 H1         -0.0640    1.0170    1.4320 hc        1 MOL      0.035600
      8 H2          0.0030    0.0100   -0.0150 hc        1 MOL      0.035600
      9 H3         -0.9070   -0.5380    1.4080 hc        1 MOL      0.035600
     10 H4         -1.7580    0.3370   -2.4190 hc        1 MOL      0.040800
     11 H5         -1.3640   -1.1350   -1.4980 hc        1 MOL      0.040800
     12 H6         -2.8840   -1.0360   -2.3570 hc        1 MOL      0.040800
     13 H7         -3.8180    1.7860   -1.6050 hc        1 MOL      0.040800
     14 H8         -4.7990    0.3080   -1.4780 hc        1 MOL      0.040800
     15 H9         -4.6070    1.3430   -0.0750 hc        1 MOL      0.040800
     16 H10        -1.5800    1.9070   -0.3220 hc        1 MOL      0.047900
     17 H11        -2.4270    1.4410    1.1530 hc        1 MOL      0.047900
     18 H12        -4.2430   -0.9740    0.2010 ho        1 MOL      0.398500
@<TRIPOS>BOND
     1    1    4 1   
     2    2    5 1   
     3    3    5 1   
     4    4    5 1   
     5    5    6 1   
     6    1    7 1   
     7    1    8 1   
     8    1    9 1   
     9    2   10 1   
    10    2   11 1   
    11    2   12 1   
    12    3   13 1   
    13    3   14 1   
    14    3   15 1   
    15    4   16 1   
    16    4   17 1   
    17    6   18 1   
@<TRIPOS>SUBSTRUCTURE
     1 R0_         1 TEMP              0 ****  ****    0 ROOT
