@<TRIPOS>MOLECULE
sec_butylbenzene
   24    24     1     0     0
SMALL
No Charge or Current Charge


@<TRIPOS>ATOM
      1 C1         -2.8370   -3.0530    1.5020 ca        1 MOL     -0.133800
      2 C2         -1.4520   -2.9810    1.6470 ca        1 MOL     -0.129000
      3 C3         -3.6200   -1.9190    1.7210 ca        1 MOL     -0.129000
      4 C4         -0.8490   -1.7770    2.0090 ca        1 MOL     -0.128300
      5 C5         -3.0180   -0.7150    2.0830 ca        1 MOL     -0.128300
      6 C6         -1.6450   -0.6670    2.2200 ca        1 MOL     -0.061400
      7 C7          0.3370    0.9320    0.4460 c3        1 MOL     -0.091300
      8 C8         -0.8830    0.7540    4.1410 c3        1 MOL     -0.084700
      9 C9          0.3960    0.8500    1.9670 c3        1 MOL     -0.071500
     10 C10        -0.9890    0.6450    2.6150 c3        1 MOL     -0.030600
     11 H1         -3.3060   -3.9910    1.2200 ha        1 MOL      0.129800
     12 H2         -0.8420   -3.8640    1.4770 ha        1 MOL      0.129500
     13 H3         -4.6990   -1.9750    1.6080 ha        1 MOL      0.129500
     14 H4          0.2310   -1.7300    2.1190 ha        1 MOL      0.131100
     15 H5         -3.6360    0.1630    2.2510 ha        1 MOL      0.131100
     16 H6          1.3310    1.1540    0.0440 hc        1 MOL      0.033700
     17 H7          0.0040   -0.0120    0.0050 hc        1 MOL      0.033700
     18 H8         -0.3440    1.7250    0.1210 hc        1 MOL      0.033700
     19 H9         -0.2070   -0.0010    4.5590 hc        1 MOL      0.035600
     20 H10        -0.5010    1.7390    4.4320 hc        1 MOL      0.035600
     21 H11        -1.8630    0.6240    4.6130 hc        1 MOL      0.035600
     22 H12         1.0880    0.0510    2.2560 hc        1 MOL      0.039800
     23 H13         0.8290    1.7870    2.3400 hc        1 MOL      0.039800
     24 H14        -1.6320    1.4720    2.2850 hc        1 MOL      0.049500
@<TRIPOS>BOND
     1    1    2 ar  
     2    1    3 ar  
     3    2    4 ar  
     4    3    5 ar  
     5    4    6 ar  
     6    5    6 ar  
     7    6   10 1   
     8    7    9 1   
     9    8   10 1   
    10    9   10 1   
    11    1   11 1   
    12    2   12 1   
    13    3   13 1   
    14    4   14 1   
    15    5   15 1   
    16    7   16 1   
    17    7   17 1   
    18    7   18 1   
    19    8   19 1   
    20    8   20 1   
    21    8   21 1   
    22    9   22 1   
    23    9   23 1   
    24   10   24 1   
@<TRIPOS>SUBSTRUCTURE
     1 R0_         1 TEMP              0 ****  ****    0 ROOT
