@<TRIPOS>MOLECULE
triethylamine
   22    21     1     0     0
SMALL
No Charge or Current Charge


@<TRIPOS>ATOM
      1 C1         -1.1670   -1.4790    0.9430 c3        1 MOL     -0.100200
      2 C2          1.0000    1.8470    2.5380 c3        1 MOL     -0.100200
      3 C3          2.8800   -1.9410    2.1940 c3        1 MOL     -0.100200
      4 C4         -0.2720   -0.2550    1.0310 c3        1 MOL      0.169700
      5 C5          1.7510    0.6710    1.9380 c3        1 MOL      0.169700
      6 C6          1.6570   -1.6540    1.3400 c3        1 MOL      0.169700
      7 N1          0.9010   -0.5170    1.8640 n3        1 MOL     -0.732200
      8 H1         -0.6360   -2.3270    0.4970 hc        1 MOL      0.036500
      9 H2         -1.5260   -1.7810    1.9320 hc        1 MOL      0.036500
     10 H3         -2.0410   -1.2630    0.3190 hc        1 MOL      0.036500
     11 H4          0.1270    2.1110    1.9310 hc        1 MOL      0.036500
     12 H5          0.6560    1.6230    3.5540 hc        1 MOL      0.036500
     13 H6          1.6520    2.7250    2.5890 hc        1 MOL      0.036500
     14 H7          3.5600   -1.0830    2.2140 hc        1 MOL      0.036500
     15 H8          2.5980   -2.1790    3.2250 hc        1 MOL      0.036500
     16 H9          3.4300   -2.7970    1.7890 hc        1 MOL      0.036500
     17 H10        -0.8320    0.5860    1.4520 h1        1 MOL      0.032500
     18 H11         0.0570    0.0390    0.0290 h1        1 MOL      0.032500
     19 H12         2.6340    0.4450    2.5450 h1        1 MOL      0.032500
     20 H13         2.1010    0.9270    0.9330 h1        1 MOL      0.032500
     21 H14         1.0080   -2.5350    1.3110 h1        1 MOL      0.032500
     22 H15         1.9630   -1.4400    0.3110 h1        1 MOL      0.032500
@<TRIPOS>BOND
     1    1    4 1   
     2    2    5 1   
     3    3    6 1   
     4    4    7 1   
     5    5    7 1   
     6    6    7 1   
     7    1    8 1   
     8    1    9 1   
     9    1   10 1   
    10    2   11 1   
    11    2   12 1   
    12    2   13 1   
    13    3   14 1   
    14    3   15 1   
    15    3   16 1   
    16    4   17 1   
    17    4   18 1   
    18    5   19 1   
    19    5   20 1   
    20    6   21 1   
    21    6   22 1   
@<TRIPOS>SUBSTRUCTURE
     1 R0_         1 TEMP              0 ****  ****    0 ROOT
