@<TRIPOS>MOLECULE
cyclopentanone
   14    14     1     0     0
SMALL
No Charge or Current Charge


@<TRIPOS>ATOM
      1 C1         -1.1820   -1.5420    0.9430 c         1 MOL      0.563300
      2 C2         -0.1040   -0.4890    0.9710 c3        1 MOL     -0.188300
      3 C3         -0.7180   -2.8480    1.5330 c3        1 MOL     -0.188300
      4 C4          1.1260   -1.3140    1.3260 c3        1 MOL     -0.080900
      5 C5          0.5900   -2.4400    2.1990 c3        1 MOL     -0.080900
      6 O1         -2.3050   -1.3570    0.4920 o         1 MOL     -0.522200
      7 H1         -0.0000    0.0010    0.0000 hc        1 MOL      0.074600
      8 H2         -0.3380    0.2390    1.7520 hc        1 MOL      0.074600
      9 H3         -1.4380   -3.2370    2.2560 hc        1 MOL      0.074600
     10 H4         -0.5490   -3.5640    0.7240 hc        1 MOL      0.074600
     11 H5          1.5760   -1.7290    0.4160 hc        1 MOL      0.049700
     12 H6          1.8880   -0.7180    1.8370 hc        1 MOL      0.049700
     13 H7          0.3960   -2.0670    3.2120 hc        1 MOL      0.049700
     14 H8          1.2910   -3.2770    2.2760 hc        1 MOL      0.049700
@<TRIPOS>BOND
     1    1    2 1   
     2    1    3 1   
     3    1    6 2   
     4    2    4 1   
     5    3    5 1   
     6    4    5 1   
     7    2    7 1   
     8    2    8 1   
     9    3    9 1   
    10    3   10 1   
    11    4   11 1   
    12    4   12 1   
    13    5   13 1   
    14    5   14 1   
@<TRIPOS>SUBSTRUCTURE
     1 R0_         1 TEMP              0 ****  ****    0 ROOT
