@<TRIPOS>MOLECULE
1_iodopropane
   11    10     1     0     0
SMALL
No Charge or Current Charge


@<TRIPOS>ATOM
      1 C1         -0.5090   -0.5490    0.7980 c3        1 MOL     -0.095000
      2 C2          0.3040   -0.5210    2.0830 c3        1 MOL     -0.073500
      3 C3          1.6750   -1.1640    1.8860 c3        1 MOL      0.072500
      4 I1          2.7880   -1.1440    3.7120 i         1 MOL     -0.257400
      5 H1         -1.4880   -0.0860    0.9590 hc        1 MOL      0.037900
      6 H2          0.0000    0.0000    0.0000 hc        1 MOL      0.037900
      7 H3         -0.6720   -1.5770    0.4590 hc        1 MOL      0.037900
      8 H4         -0.2530   -1.0470    2.8690 hc        1 MOL      0.050000
      9 H5          0.4150    0.5190    2.4120 hc        1 MOL      0.050000
     10 H6          2.2350   -0.6250    1.1140 h1        1 MOL      0.069900
     11 H7          1.5600   -2.1980    1.5430 h1        1 MOL      0.069900
@<TRIPOS>BOND
     1    1    2 1   
     2    2    3 1   
     3    3    4 1   
     4    1    5 1   
     5    1    6 1   
     6    1    7 1   
     7    2    8 1   
     8    2    9 1   
     9    3   10 1   
    10    3   11 1   
@<TRIPOS>SUBSTRUCTURE
     1 R0_         1 TEMP              0 ****  ****    0 ROOT
