@<TRIPOS>MOLECULE
1_naphthol
   19    20     1     0     0
SMALL
No Charge or Current Charge


@<TRIPOS>ATOM
      1 C1         -0.5680   -2.0630    0.2280 ca        1 MOL     -0.118200
      2 C2          0.3420   -1.0310    0.0180 ca        1 MOL     -0.134100
      3 C3          3.0390   -5.3110   -0.1010 ca        1 MOL     -0.090300
      4 C4         -0.1300   -3.3870    0.2510 ca        1 MOL     -0.124500
      5 C5          1.6940   -1.3190   -0.1680 ca        1 MOL     -0.106400
      6 C6          1.6870   -5.0230    0.0860 ca        1 MOL     -0.154400
      7 C7          3.9500   -4.2790   -0.3090 ca        1 MOL     -0.199100
      8 C8          1.2280   -3.6950    0.0650 ca        1 MOL     -0.008300
      9 C9          2.1530   -2.6460   -0.1470 ca        1 MOL     -0.071500
     10 C10         3.5110   -2.9550   -0.3330 ca        1 MOL      0.138400
     11 O1          4.4410   -1.9760   -0.5410 oh        1 MOL     -0.499600
     12 H1         -1.6210   -1.8370    0.3720 ha        1 MOL      0.133000
     13 H2         -0.0000   -0.0000    0.0010 ha        1 MOL      0.133700
     14 H3          3.3810   -6.3420   -0.0810 ha        1 MOL      0.133800
     15 H4         -0.8590   -4.1770    0.4170 ha        1 MOL      0.134400
     16 H5          2.3790   -0.4890   -0.3310 ha        1 MOL      0.135200
     17 H6          0.9930   -5.8450    0.2470 ha        1 MOL      0.134500
     18 H7          5.0010   -4.5130   -0.4540 ha        1 MOL      0.142300
     19 H8          4.6430   -1.5550    0.3130 ho        1 MOL      0.421200
@<TRIPOS>BOND
     1    1    2 ar  
     2    1    4 ar  
     3    2    5 ar  
     4    3    6 ar  
     5    3    7 ar  
     6    4    8 ar  
     7    5    9 ar  
     8    6    8 ar  
     9    7   10 ar  
    10    8    9 ar  
    11    9   10 ar  
    12   10   11 1   
    13    1   12 1   
    14    2   13 1   
    15    3   14 1   
    16    4   15 1   
    17    5   16 1   
    18    6   17 1   
    19    7   18 1   
    20   11   19 1   
@<TRIPOS>SUBSTRUCTURE
     1 R0_         1 TEMP              0 ****  ****    0 ROOT
