@<TRIPOS>MOLECULE
SAMPL4_016
   31    31     1     0     0
SMALL
bcc


@<TRIPOS>ATOM
      1 C1         -0.9420   -0.4470   -1.3190 c3        1 MOL     -0.076400
      2 C2         -1.2800   -1.0230    0.0550 c3        1 MOL     -0.076400
      3 C3          1.0100    0.7950   -0.3200 c3        1 MOL     -0.109400
      4 C4          0.5530   -0.1350   -1.4480 c3        1 MOL     -0.061700
      5 C5         -0.8220   -0.0980    1.1900 c3        1 MOL     -0.051700
      6 C6          0.6750    0.2270    1.0600 c3        1 MOL      0.143100
      7 C7          0.8600    0.4800   -2.8130 c3        1 MOL     -0.090100
      8 C8         -2.6460   -0.9290    2.7020 c3        1 MOL     -0.088600
      9 C9         -0.4000   -2.0510    2.7100 c3        1 MOL     -0.088600
     10 C10        -1.1410   -0.7280    2.5490 c3        1 MOL     -0.066700
     11 O1          1.0370    1.1850    2.0520 oh        1 MOL     -0.601800
     12 H1         -1.2430   -1.1620   -2.0940 hc        1 MOL      0.041700
     13 H2         -1.5310    0.4650   -1.4820 hc        1 MOL      0.041700
     14 H3         -2.3620   -1.1860    0.1190 hc        1 MOL      0.044200
     15 H4         -0.8050   -2.0070    0.1600 hc        1 MOL      0.044200
     16 H5          2.0920    0.9710   -0.3870 hc        1 MOL      0.046200
     17 H6          0.5460    1.7850   -0.4310 hc        1 MOL      0.046200
     18 H7          1.1130   -1.0760   -1.3690 hc        1 MOL      0.046700
     19 H8         -1.3870    0.8410    1.1330 hc        1 MOL      0.060700
     20 H9          1.2720   -0.6780    1.2350 h1        1 MOL      0.033700
     21 H10         0.3200    1.4190   -2.9250 hc        1 MOL      0.035033
     22 H11         0.5540   -0.2040   -3.6030 hc        1 MOL      0.035033
     23 H12         1.9280    0.6710   -2.9000 hc        1 MOL      0.035033
     24 H13        -3.0380   -1.6120    1.9400 hc        1 MOL      0.032033
     25 H14        -3.1780    0.0230    2.6100 hc        1 MOL      0.032033
     26 H15        -2.8800   -1.3500    3.6860 hc        1 MOL      0.032033
     27 H16        -0.7050   -2.7760    1.9480 hc        1 MOL      0.032033
     28 H17        -0.6000   -2.4880    3.6940 hc        1 MOL      0.032033
     29 H18         0.6820   -1.9050    2.6230 hc        1 MOL      0.032033
     30 H19        -0.8010   -0.0410    3.3310 hc        1 MOL      0.069700
     31 H20         1.9910    1.3340    1.9560 ho        1 MOL      0.397000
@<TRIPOS>BOND
     1    1    2 1   
     2    1    4 1   
     3    2    5 1   
     4    3    4 1   
     5    3    6 1   
     6    4    7 1   
     7    5    6 1   
     8    5   10 1   
     9    6   11 1   
    10    8   10 1   
    11    9   10 1   
    12    1   12 1   
    13    1   13 1   
    14    2   14 1   
    15    2   15 1   
    16    3   16 1   
    17    3   17 1   
    18    4   18 1   
    19    5   19 1   
    20    6   20 1   
    21    7   21 1   
    22    7   22 1   
    23    7   23 1   
    24    8   24 1   
    25    8   25 1   
    26    8   26 1   
    27    9   27 1   
    28    9   28 1   
    29    9   29 1   
    30   10   30 1   
    31   11   31 1   
@<TRIPOS>SUBSTRUCTURE
     1 TMP         1 TEMP              0 ****  ****    0 ROOT
