@<TRIPOS>MOLECULE
2_nitropropane
   13    12     1     0     0
SMALL
No Charge or Current Charge


@<TRIPOS>ATOM
      1 C1         -0.3750   -0.4200    0.9410 c3        1 MOL     -0.110300
      2 C2          1.3400    0.8520    2.2980 c3        1 MOL     -0.110300
      3 C3          0.7140   -0.4970    1.9950 c3        1 MOL     -0.050100
      4 N1          1.7800   -1.3770    1.4720 no        1 MOL      0.222700
      5 O1          2.0380   -2.4080    2.1130 o         1 MOL     -0.211600
      6 O2          2.3350   -1.0340    0.4160 o         1 MOL     -0.211600
      7 H1         -1.2010    0.2100    1.2850 hc        1 MOL      0.062000
      8 H2          0.0000    0.0000    0.0000 hc        1 MOL      0.062000
      9 H3         -0.7800   -1.4140    0.7190 hc        1 MOL      0.062000
     10 H4          2.1460    0.7560    3.0350 hc        1 MOL      0.062000
     11 H5          0.5930    1.5410    2.7060 hc        1 MOL      0.062000
     12 H6          1.7690    1.3120    1.4000 hc        1 MOL      0.062000
     13 H7          0.3460   -0.9740    2.9080 h1        1 MOL      0.099000
@<TRIPOS>BOND
     1    1    3 1   
     2    2    3 1   
     3    3    4 1   
     4    4    5 1   
     5    4    6 1   
     6    1    7 1   
     7    1    8 1   
     8    1    9 1   
     9    2   10 1   
    10    2   11 1   
    11    2   12 1   
    12    3   13 1   
@<TRIPOS>SUBSTRUCTURE
     1 R0_         1 TEMP              0 ****  ****    0 ROOT
