@<TRIPOS>MOLECULE
2_ethoxyethanol
   16    15     1     0     0
SMALL
No Charge or Current Charge


@<TRIPOS>ATOM
      1 C1         -5.6570    0.8150    0.3000 c3        1 MOL     -0.110000
      2 C2         -4.4870   -0.0070   -0.2000 c3        1 MOL      0.132200
      3 C3         -0.8940    0.4510    0.4420 c3        1 MOL      0.126500
      4 C4         -2.1460   -0.1940   -0.1210 c3        1 MOL      0.103500
      5 O1         -0.8010    1.7860   -0.0410 oh        1 MOL     -0.602600
      6 O2         -3.2830    0.5410    0.3170 os        1 MOL     -0.431400
      7 H1         -6.6020    0.4190   -0.0810 hc        1 MOL      0.043500
      8 H2         -5.6890    0.8150    1.3940 hc        1 MOL      0.043500
      9 H3         -5.5580    1.8590   -0.0160 hc        1 MOL      0.043500
     10 H4         -4.4430    0.0130   -1.2930 h1        1 MOL      0.035200
     11 H5         -4.5760   -1.0440    0.1360 h1        1 MOL      0.035200
     12 H6          0.0040   -0.0890    0.1250 h1        1 MOL      0.043800
     13 H7         -0.9380    0.4830    1.5340 h1        1 MOL      0.043800
     14 H8         -2.2510   -1.2250    0.2300 h1        1 MOL      0.042000
     15 H9         -2.1270   -0.1760   -1.2140 h1        1 MOL      0.042000
     16 H10         0.0050    1.8330   -0.5780 ho        1 MOL      0.409300
@<TRIPOS>BOND
     1    1    2 1   
     2    2    6 1   
     3    3    4 1   
     4    3    5 1   
     5    4    6 1   
     6    1    7 1   
     7    1    8 1   
     8    1    9 1   
     9    2   10 1   
    10    2   11 1   
    11    3   12 1   
    12    3   13 1   
    13    4   14 1   
    14    4   15 1   
    15    5   16 1   
@<TRIPOS>SUBSTRUCTURE
     1 R0_         1 TEMP              0 ****  ****    0 ROOT
