@<TRIPOS>MOLECULE
glycerol
   14    13     1     0     0
SMALL
No Charge or Current Charge


@<TRIPOS>ATOM
      1 C1          0.9520    0.5380   -0.0330 c3        1 MOL      0.101400
      2 C2          0.9860    0.2570   -2.5350 c3        1 MOL      0.101300
      3 C3          1.1440    1.2330   -1.3740 c3        1 MOL      0.132900
      4 O1          1.1390    1.4890    1.0110 oh        1 MOL     -0.587800
      5 O2          1.1660    0.9420   -3.7700 oh        1 MOL     -0.586600
      6 O3          2.4670    1.7730   -1.4060 oh        1 MOL     -0.572400
      7 H1          1.6850   -0.2630    0.1080 h1        1 MOL      0.022900
      8 H2         -0.0590    0.1290    0.0590 h1        1 MOL      0.026500
      9 H3         -0.0090   -0.2010   -2.5430 h1        1 MOL      0.027800
     10 H4          1.7390   -0.5350   -2.4900 h1        1 MOL      0.021100
     11 H5          0.4550    2.0800   -1.4720 h1        1 MOL      0.122800
     12 H6          1.0100    1.0130    1.8460 ho        1 MOL      0.400800
     13 H7          1.0560    0.2820   -4.4720 ho        1 MOL      0.400500
     14 H8          3.0700    1.0220   -1.3020 ho        1 MOL      0.388600
@<TRIPOS>BOND
     1    1    3 1   
     2    1    4 1   
     3    2    3 1   
     4    2    5 1   
     5    3    6 1   
     6    1    7 1   
     7    1    8 1   
     8    2    9 1   
     9    2   10 1   
    10    3   11 1   
    11    4   12 1   
    12    5   13 1   
    13    6   14 1   
@<TRIPOS>SUBSTRUCTURE
     1 GCO         1 TEMP              0 ****  ****    0 ROOT
