@<TRIPOS>MOLECULE
5-chlorouracil
   12    12     1     0     0
SMALL
No Charge or Current Charge


@<TRIPOS>ATOM
      1 C1         -1.2670    0.4240    1.5540 cc        1 MOL      0.051200
      2 C2         -2.2300    0.0050    2.3790 cd        1 MOL     -0.179100
      3 C3         -2.7450   -1.3830    2.2600 c         1 MOL      0.723100
      4 C4         -1.1330   -1.6990    0.3900 c         1 MOL      0.803400
      5 N1         -0.7300   -0.3870    0.5910 n         1 MOL     -0.466200
      6 N2         -2.1410   -2.1330    1.2560 n         1 MOL     -0.583500
      7 O1         -3.6280   -1.8180    2.9940 o         1 MOL     -0.582000
      8 O2         -0.6440   -2.4230   -0.4780 o         1 MOL     -0.628500
      9 Cl1        -2.9010    1.0230    3.5870 cl        1 MOL     -0.032000
     10 H1         -0.8530    1.4240    1.5940 h4        1 MOL      0.175300
     11 H2          0.0000   -0.0090   -0.0050 hn        1 MOL      0.359500
     12 H3         -2.4640   -3.0890    1.1390 hn        1 MOL      0.358800
@<TRIPOS>BOND
     1    1    2 2   
     2    1    5 1   
     3    2    3 1   
     4    2    9 1   
     5    3    6 1   
     6    3    7 2   
     7    4    5 1   
     8    4    6 1   
     9    4    8 2   
    10    1   10 1   
    11    5   11 1   
    12    6   12 1   
@<TRIPOS>SUBSTRUCTURE
     1 MOL         1 TEMP              0 ****  ****    0 ROOT
