@<TRIPOS>MOLECULE
butanenitrile
   12    11     1     0     0
SMALL
No Charge or Current Charge


@<TRIPOS>ATOM
      1 C1         -2.2440    3.3040   -1.0640 c1        1 MOL      0.217200
      2 C2         -0.0180    0.2010   -1.0760 c3        1 MOL     -0.095000
      3 C3         -1.0970    2.4510   -0.7270 c3        1 MOL     -0.029700
      4 C4         -1.1840    1.1050   -1.4420 c3        1 MOL     -0.075200
      5 N1         -3.1500    3.9790   -1.3290 n1        1 MOL     -0.376300
      6 H1          0.9360    0.6590   -1.3560 hc        1 MOL      0.038500
      7 H2         -0.0000    0.0000    0.0000 hc        1 MOL      0.038500
      8 H3         -0.1010   -0.7570   -1.5990 hc        1 MOL      0.038500
      9 H4         -0.1680    2.9620   -1.0070 hc        1 MOL      0.071800
     10 H5         -1.0630    2.2950    0.3570 hc        1 MOL      0.071800
     11 H6         -1.1960    1.2560   -2.5290 hc        1 MOL      0.050100
     12 H7         -2.1240    0.6020   -1.1830 hc        1 MOL      0.050100
@<TRIPOS>BOND
     1    1    3 1   
     2    1    5 3   
     3    2    4 1   
     4    3    4 1   
     5    2    6 1   
     6    2    7 1   
     7    2    8 1   
     8    3    9 1   
     9    3   10 1   
    10    4   11 1   
    11    4   12 1   
@<TRIPOS>SUBSTRUCTURE
     1 R0_         1 TEMP              0 ****  ****    0 ROOT
