@<TRIPOS>MOLECULE
N_methyl_N__222_trifluoroethyl__aniline
   23    23     1     0     0
SMALL
No Charge or Current Charge


@<TRIPOS>ATOM
      1 C1          1.8840   -1.0360   -0.1090 ca        1 MOL     -0.169100
      2 C2          2.8270   -0.2760    0.5840 ca        1 MOL     -0.091100
      3 C3          0.9250   -1.7660    0.5930 ca        1 MOL     -0.091100
      4 C4          2.8100   -0.2470    1.9780 ca        1 MOL     -0.188800
      5 C5          0.9080   -1.7360    1.9870 ca        1 MOL     -0.188800
      6 C6          1.8510   -0.9770    2.6800 ca        1 MOL      0.185000
      7 C7          0.8410   -1.7020    4.8280 c3        1 MOL      0.212000
      8 C8          2.8170   -0.1710    4.8190 c3        1 MOL      0.214000
      9 C9          2.3190    1.2390    5.0220 c3        1 MOL      0.595200
     10 N1          1.8340   -0.9470    4.0900 nh        1 MOL     -0.698900
     11 F1          3.2370    1.9730    5.6890 f         1 MOL     -0.245800
     12 F2          2.0830    1.8540    3.8440 f         1 MOL     -0.245800
     13 F3          1.1780    1.2610    5.7430 f         1 MOL     -0.245800
     14 H1          1.8970   -1.0590   -1.1950 ha        1 MOL      0.133600
     15 H2          3.5740    0.2920    0.0370 ha        1 MOL      0.131700
     16 H3          0.1910   -2.3570    0.0540 ha        1 MOL      0.131700
     17 H4          3.5490    0.3490    2.5080 ha        1 MOL      0.133200
     18 H5          0.1560   -2.3090    2.5240 ha        1 MOL      0.133200
     19 H6         -0.1270   -1.1950    4.7830 h1        1 MOL      0.042900
     20 H7          1.1400   -1.7960    5.8750 h1        1 MOL      0.042900
     21 H8          0.7340   -2.7030    4.4020 h1        1 MOL      0.042900
     22 H9          3.0090   -0.6450    5.7870 h1        1 MOL      0.083300
     23 H10         3.7580   -0.1610    4.2610 h1        1 MOL      0.083300
@<TRIPOS>BOND
     1    1    2 ar  
     2    1    3 ar  
     3    2    4 ar  
     4    3    5 ar  
     5    4    6 ar  
     6    5    6 ar  
     7    6   10 1   
     8    7   10 1   
     9    8    9 1   
    10    8   10 1   
    11    9   11 1   
    12    9   12 1   
    13    9   13 1   
    14    1   14 1   
    15    2   15 1   
    16    3   16 1   
    17    4   17 1   
    18    5   18 1   
    19    7   19 1   
    20    7   20 1   
    21    7   21 1   
    22    8   22 1   
    23    8   23 1   
@<TRIPOS>SUBSTRUCTURE
     1 R0_         1 TEMP              0 ****  ****    0 ROOT
