@<TRIPOS>MOLECULE
1_iodohexane
   20    19     1     0     0
SMALL
No Charge or Current Charge


@<TRIPOS>ATOM
      1 C1          0.6360   -0.6970    0.5560 c3        1 MOL     -0.090000
      2 C2         -0.0570   -1.1330    1.8370 c3        1 MOL     -0.078300
      3 C3          0.8240   -2.0750    2.6570 c3        1 MOL     -0.076700
      4 C4          0.1100   -2.5380    3.9300 c3        1 MOL     -0.078600
      5 C5          1.0060   -3.4610    4.7630 c3        1 MOL     -0.073700
      6 C6          0.3010   -4.0390    5.9910 c3        1 MOL      0.072100
      7 I1          1.5340   -5.4150    7.0670 i         1 MOL     -0.256500
      8 H1          1.5680   -0.1670    0.7750 hc        1 MOL      0.032300
      9 H2         -0.0120   -0.0240   -0.0150 hc        1 MOL      0.032300
     10 H3          0.8700   -1.5590   -0.0760 hc        1 MOL      0.032300
     11 H4         -0.3070   -0.2460    2.4300 hc        1 MOL      0.038600
     12 H5         -1.0000   -1.6310    1.5840 hc        1 MOL      0.038600
     13 H6          1.7580   -1.5650    2.9250 hc        1 MOL      0.039500
     14 H7          1.0940   -2.9470    2.0490 hc        1 MOL      0.039500
     15 H8         -0.8110   -3.0680    3.6590 hc        1 MOL      0.041800
     16 H9         -0.1830   -1.6600    4.5160 hc        1 MOL      0.041800
     17 H10         1.9220   -2.9330    5.0550 hc        1 MOL      0.052100
     18 H11         1.3170   -4.3000    4.1280 hc        1 MOL      0.052100
     19 H12        -0.0340   -3.2340    6.6540 h1        1 MOL      0.070500
     20 H13        -0.5960   -4.5740    5.6620 h1        1 MOL      0.070500
@<TRIPOS>BOND
     1    1    2 1   
     2    2    3 1   
     3    3    4 1   
     4    4    5 1   
     5    5    6 1   
     6    6    7 1   
     7    1    8 1   
     8    1    9 1   
     9    1   10 1   
    10    2   11 1   
    11    2   12 1   
    12    3   13 1   
    13    3   14 1   
    14    4   15 1   
    15    4   16 1   
    16    5   17 1   
    17    5   18 1   
    18    6   19 1   
    19    6   20 1   
@<TRIPOS>SUBSTRUCTURE
     1 R0_         1 TEMP              0 ****  ****    0 ROOT
