@<TRIPOS>MOLECULE
123_trichlorobenzene
   12    12     1     0     0
SMALL
No Charge or Current Charge


@<TRIPOS>ATOM
      1 C1          1.8850   -1.0380   -0.1090 ca        1 MOL     -0.113700
      2 C2          0.8180   -0.4410    0.5630 ca        1 MOL     -0.117800
      3 C3          2.9350   -1.6040    0.6140 ca        1 MOL     -0.117800
      4 C4          0.8010   -0.4100    1.9570 ca        1 MOL      0.023600
      5 C5          2.9180   -1.5730    2.0080 ca        1 MOL      0.023600
      6 C6          1.8510   -0.9770    2.6800 ca        1 MOL      0.016700
      7 Cl1        -0.5560    0.3470    2.7180 cl        1 MOL     -0.062700
      8 Cl2         4.2530   -2.2990    2.8370 cl        1 MOL     -0.062700
      9 Cl3         1.8280   -0.9420    4.4180 cl        1 MOL     -0.045000
     10 H1          1.8980   -1.0610   -1.1950 ha        1 MOL      0.146400
     11 H2          0.0080   -0.0060   -0.0170 ha        1 MOL      0.154800
     12 H3          3.7580   -2.0630    0.0730 ha        1 MOL      0.154800
@<TRIPOS>BOND
     1    1    2 ar  
     2    1    3 ar  
     3    2    4 ar  
     4    3    5 ar  
     5    4    6 ar  
     6    4    7 1   
     7    5    6 ar  
     8    5    8 1   
     9    6    9 1   
    10    1   10 1   
    11    2   11 1   
    12    3   12 1   
@<TRIPOS>SUBSTRUCTURE
     1 R0_         1 TEMP              0 ****  ****    0 ROOT
