@<TRIPOS>MOLECULE
SAMPL4_035
   15    15     1     0     0
SMALL
bcc


@<TRIPOS>ATOM
      1 C1          2.6000   -1.4240   -0.3850 ca        1 MOL     -0.185000
      2 C2          3.4990   -1.9540    0.5400 ca        1 MOL     -0.061000
      3 C3          1.4370   -0.7930    0.0550 ca        1 MOL     -0.051000
      4 C4          3.2350   -1.8520    1.9060 ca        1 MOL     -0.182000
      5 C5          1.1720   -0.6910    1.4210 ca        1 MOL     -0.292600
      6 C6          2.0710   -1.2200    2.3460 ca        1 MOL      0.210100
      7 C7         -0.0480   -0.0280    1.8590 c         1 MOL      0.590500
      8 O1         -0.3530    0.1020    3.0460 o         1 MOL     -0.564100
      9 O2          1.8320   -1.1290    3.6850 oh        1 MOL     -0.499100
     10 H1          2.8060   -1.5030   -1.4490 ha        1 MOL      0.139000
     11 H2          4.4040   -2.4460    0.1970 ha        1 MOL      0.139000
     12 H3          0.7440   -0.3830   -0.6760 ha        1 MOL      0.134000
     13 H4          3.9390   -2.2670    2.6220 ha        1 MOL      0.157000
     14 H5         -0.7210    0.3720    1.0710 h4        1 MOL      0.006200
     15 H6          0.9930   -0.6690    3.8440 ho        1 MOL      0.459000
@<TRIPOS>BOND
     1    1    2 ar  
     2    1    3 ar  
     3    2    4 ar  
     4    3    5 ar  
     5    4    6 ar  
     6    5    6 ar  
     7    5    7 1   
     8    6    9 1   
     9    7    8 2   
    10    1   10 1   
    11    2   11 1   
    12    3   12 1   
    13    4   13 1   
    14    7   14 1   
    15    9   15 1   
@<TRIPOS>SUBSTRUCTURE
     1 TMP         1 TEMP              0 ****  ****    0 ROOT
