@<TRIPOS>MOLECULE
phenyl_formate
   15    15     1     0     0
SMALL
No Charge or Current Charge


@<TRIPOS>ATOM
      1 C1          1.8850   -1.0380   -0.1090 ca        1 MOL     -0.128700
      2 C2          0.8180   -0.4410    0.5630 ca        1 MOL     -0.118500
      3 C3          2.9350   -1.6040    0.6140 ca        1 MOL     -0.118500
      4 C4          0.8010   -0.4100    1.9570 ca        1 MOL     -0.132200
      5 C5          2.9180   -1.5730    2.0080 ca        1 MOL     -0.132200
      6 C6          1.8510   -0.9770    2.6800 ca        1 MOL      0.083000
      7 C7          1.2110   -2.0570    4.6190 c         1 MOL      0.628500
      8 O1          0.7050   -3.0040    4.0370 o         1 MOL     -0.489300
      9 O2          1.8340   -0.9480    4.0400 os        1 MOL     -0.365900
     10 H1          1.8990   -1.0600   -1.1950 ha        1 MOL      0.136700
     11 H2         -0.0000   -0.0010   -0.0000 ha        1 MOL      0.138200
     12 H3          3.7660   -2.0680    0.0900 ha        1 MOL      0.138200
     13 H4         -0.0340    0.0550    2.4750 ha        1 MOL      0.147500
     14 H5          3.7390   -2.0170    2.5660 ha        1 MOL      0.147500
     15 H6          1.2450   -1.9500    5.7150 h5        1 MOL      0.065900
@<TRIPOS>BOND
     1    1    2 ar  
     2    1    3 ar  
     3    2    4 ar  
     4    3    5 ar  
     5    4    6 ar  
     6    5    6 ar  
     7    6    9 1   
     8    7    8 2   
     9    7    9 1   
    10    1   10 1   
    11    2   11 1   
    12    3   12 1   
    13    4   13 1   
    14    5   14 1   
    15    7   15 1   
@<TRIPOS>SUBSTRUCTURE
     1 R0_         1 TEMP              0 ****  ****    0 ROOT
