@<TRIPOS>MOLECULE
NN_dimethyl_p_methoxybenzamide
   26    26     1     0     0
SMALL
No Charge or Current Charge


@<TRIPOS>ATOM
      1 C1          0.8450   -0.3260    0.5970 ca        1 MOL     -0.062800
      2 C2          2.9580   -1.4940    0.6720 ca        1 MOL     -0.062800
      3 C3          0.8410   -0.2420    1.9890 ca        1 MOL     -0.186900
      4 C4          2.9540   -1.4110    2.0650 ca        1 MOL     -0.186900
      5 C5          1.9030   -0.9520   -0.0620 ca        1 MOL     -0.167800
      6 C6          1.8960   -0.7850    2.7230 ca        1 MOL      0.140300
      7 C7          1.9060   -1.0390   -1.5140 c         1 MOL      0.675000
      8 C8          2.5600   -0.0290   -3.7110 c3        1 MOL      0.084600
      9 C9          3.1080    1.1620   -1.6190 c3        1 MOL      0.084600
     10 C10         0.7770   -0.0530    4.6900 c3        1 MOL      0.115900
     11 N1          2.5040   -0.0050   -2.2570 n         1 MOL     -0.483100
     12 O1          1.3840   -2.0430   -2.0170 o         1 MOL     -0.595800
     13 O2          1.8910   -0.7050    4.0820 os        1 MOL     -0.326000
     14 H1          0.0180    0.1000    0.0340 ha        1 MOL      0.145000
     15 H2          3.7870   -1.9860    0.1700 ha        1 MOL      0.145000
     16 H3          0.0130    0.2450    2.4960 ha        1 MOL      0.147900
     17 H4          3.7790   -1.8350    2.6310 ha        1 MOL      0.147900
     18 H5          3.5870    0.1670   -4.0260 h1        1 MOL      0.041500
     19 H6          1.8930    0.7430   -4.1020 h1        1 MOL      0.041500
     20 H7          2.2400   -1.0120   -4.0610 h1        1 MOL      0.041500
     21 H8          2.3420    1.6810   -1.0380 h1        1 MOL      0.041500
     22 H9          3.5040    1.8220   -2.3940 h1        1 MOL      0.041500
     23 H10         3.9150    0.8280   -0.9630 h1        1 MOL      0.041500
     24 H11        -0.0440   -0.7650    4.8050 h1        1 MOL      0.045700
     25 H12         0.4610    0.7870    4.0670 h1        1 MOL      0.045700
     26 H13         1.0760    0.3170    5.6740 h1        1 MOL      0.045700
@<TRIPOS>BOND
     1    1    3 ar  
     2    1    5 ar  
     3    2    4 ar  
     4    2    5 ar  
     5    3    6 ar  
     6    4    6 ar  
     7    5    7 1   
     8    6   13 1   
     9    7   11 1   
    10    7   12 2   
    11    8   11 1   
    12    9   11 1   
    13   10   13 1   
    14    1   14 1   
    15    2   15 1   
    16    3   16 1   
    17    4   17 1   
    18    8   18 1   
    19    8   19 1   
    20    8   20 1   
    21    9   21 1   
    22    9   22 1   
    23    9   23 1   
    24   10   24 1   
    25   10   25 1   
    26   10   26 1   
@<TRIPOS>SUBSTRUCTURE
     1 R0_         1 TEMP              0 ****  ****    0 ROOT
