@<TRIPOS>MOLECULE
CUP08044_AM1BCC_v1_0
   34    33     1     0     0
SMALL
No Charge or Current Charge


@<TRIPOS>ATOM
      1 C1         -0.8340   -1.4540    2.5990 c         1 MOL      0.683900
      2 C2         -5.2760    2.2910    2.7120 c3        1 MOL     -0.089700
      3 C3         -0.3800   -4.2950    6.9830 c3        1 MOL     -0.095100
      4 C4          0.4580   -0.1390   -0.0860 c3        1 MOL     -0.109400
      5 C5         -3.7560    2.2750    2.6880 c3        1 MOL     -0.076500
      6 C6         -0.8180   -2.9420    6.4400 c3        1 MOL     -0.071200
      7 C7         -3.2180    0.9230    2.2230 c3        1 MOL     -0.101900
      8 C8         -0.9420   -0.5610    0.3300 c3        1 MOL      0.092800
      9 C9         -1.6880    0.9140    2.1970 c3        1 MOL      0.092100
     10 C10        -0.6240   -2.8670    4.9280 c3        1 MOL     -0.011600
     11 N1         -1.1580   -0.3850    1.7650 n         1 MOL     -0.460700
     12 O1         -0.3520   -2.5040    2.1860 o         1 MOL     -0.608000
     13 S1         -1.1570   -1.2420    4.3160 ss        1 MOL     -0.270000
     14 H1         -5.6650    1.5310    3.3980 hc        1 MOL      0.034000
     15 H2         -5.6410    3.2680    3.0460 hc        1 MOL      0.034000
     16 H3         -5.6870    2.0970    1.7160 hc        1 MOL      0.034000
     17 H4         -0.9620   -5.1050    6.5320 hc        1 MOL      0.036900
     18 H5          0.6800   -4.4760    6.7760 hc        1 MOL      0.036900
     19 H6         -0.5260   -4.3330    8.0670 hc        1 MOL      0.036900
     20 H7          0.6370    0.9170    0.1430 hc        1 MOL      0.041000
     21 H8          1.2190   -0.7270    0.4380 hc        1 MOL      0.041000
     22 H9          0.5950   -0.2840   -1.1620 hc        1 MOL      0.041000
     23 H10        -3.3990    3.0680    2.0200 hc        1 MOL      0.039100
     24 H11        -3.3780    2.5020    3.6920 hc        1 MOL      0.039100
     25 H12        -0.2350   -2.1580    6.9400 hc        1 MOL      0.050100
     26 H13        -1.8720   -2.7840    6.6990 hc        1 MOL      0.050100
     27 H14        -3.5890    0.1320    2.8850 hc        1 MOL      0.050600
     28 H15        -3.6040    0.6970    1.2220 hc        1 MOL      0.050600
     29 H16        -1.0950   -1.6130    0.0620 h1        1 MOL      0.058400
     30 H17        -1.6930    0.0190   -0.2180 h1        1 MOL      0.058400
     31 H18        -1.2880    1.1760    3.1820 h1        1 MOL      0.058200
     32 H19        -1.3170    1.6820    1.5080 h1        1 MOL      0.058200
     33 H20         0.4320   -3.0180    4.6780 h1        1 MOL      0.088500
     34 H21        -1.2130   -3.6490    4.4360 h1        1 MOL      0.088500
@<TRIPOS>BOND
     1    1   11 1   
     2    1   12 2   
     3    1   13 1   
     4    2    5 1   
     5    3    6 1   
     6    4    8 1   
     7    5    7 1   
     8    6   10 1   
     9    7    9 1   
    10    8   11 1   
    11    9   11 1   
    12   10   13 1   
    13    2   14 1   
    14    2   15 1   
    15    2   16 1   
    16    3   17 1   
    17    3   18 1   
    18    3   19 1   
    19    4   20 1   
    20    4   21 1   
    21    4   22 1   
    22    5   23 1   
    23    5   24 1   
    24    6   25 1   
    25    6   26 1   
    26    7   27 1   
    27    7   28 1   
    28    8   29 1   
    29    8   30 1   
    30    9   31 1   
    31    9   32 1   
    32   10   33 1   
    33   10   34 1   
@<TRIPOS>SUBSTRUCTURE
     1 R0_         1 TEMP              0 ****  ****    0 ROOT
