@<TRIPOS>MOLECULE
11_diacetoxyethane
   20    19     1     0     0
SMALL
No Charge or Current Charge


@<TRIPOS>ATOM
      1 C1          1.2720   -1.7660    0.3110 c         1 MOL      0.642100
      2 C2          3.3160   -5.0350   -1.2940 c         1 MOL      0.642100
      3 C3          0.9940   -0.3190    0.5830 c3        1 MOL     -0.147200
      4 C4          4.6470   -5.3300   -0.6730 c3        1 MOL     -0.147200
      5 C5          1.7140   -3.2990   -2.9810 c3        1 MOL     -0.112500
      6 C6          1.6580   -3.3150   -1.4600 c3        1 MOL      0.352500
      7 O1          1.3720   -2.6200    1.1830 o         1 MOL     -0.529900
      8 O2          2.7000   -5.8230   -1.9980 o         1 MOL     -0.529900
      9 O3          1.3890   -1.9630   -1.0320 os        1 MOL     -0.448100
     10 O4          2.9240   -3.7760   -0.9490 os        1 MOL     -0.448100
     11 H1          1.8160    0.2940    0.2050 hc        1 MOL      0.076400
     12 H2          0.0500   -0.0290    0.1140 hc        1 MOL      0.076400
     13 H3          0.9100   -0.1620    1.6620 hc        1 MOL      0.076400
     14 H4          5.3950   -4.6270   -1.0500 hc        1 MOL      0.076400
     15 H5          4.5720   -5.2670    0.4150 hc        1 MOL      0.076400
     16 H6          4.9560   -6.3440   -0.9420 hc        1 MOL      0.076400
     17 H7          0.7810   -2.9090   -3.4020 hc        1 MOL      0.060100
     18 H8          1.8990   -4.2980   -3.3850 hc        1 MOL      0.060100
     19 H9          2.5260   -2.6500   -3.3280 hc        1 MOL      0.060100
     20 H10         0.8360   -3.9590   -1.1230 h2        1 MOL      0.087700
@<TRIPOS>BOND
     1    1    3 1   
     2    1    7 2   
     3    1    9 1   
     4    2    4 1   
     5    2    8 2   
     6    2   10 1   
     7    5    6 1   
     8    6    9 1   
     9    6   10 1   
    10    3   11 1   
    11    3   12 1   
    12    3   13 1   
    13    4   14 1   
    14    4   15 1   
    15    4   16 1   
    16    5   17 1   
    17    5   18 1   
    18    5   19 1   
    19    6   20 1   
@<TRIPOS>SUBSTRUCTURE
     1 R0_         1 TEMP              0 ****  ****    0 ROOT
