@<TRIPOS>MOLECULE
caffeine
   24    25     1     0     0
SMALL
No Charge or Current Charge


@<TRIPOS>ATOM
      1 C1          5.1110    0.7770   -0.9260 cc        1 MOL      0.443700
      2 C2          3.6440    2.3850   -1.2370 cc        1 MOL     -0.349800
      3 C3          3.0450    1.2360   -0.7980 cd        1 MOL      0.485400
      4 C4          2.9520    3.5990   -1.5260 c         1 MOL      0.764400
      5 C5          0.8630    2.2900   -0.8430 c         1 MOL      0.814100
      6 C6          6.0480    2.9530   -1.7320 c3        1 MOL      0.010300
      7 C7          1.0820   -0.0910   -0.1250 c3        1 MOL      0.090400
      8 C8          0.7180    4.6350   -1.5600 c3        1 MOL      0.079400
      9 N1          3.9560    0.2330   -0.6040 nd        1 MOL     -0.685600
     10 N2          4.9730    2.0840   -1.3170 na        1 MOL     -0.149300
     11 N3          1.6740    1.1550   -0.5930 n         1 MOL     -0.415900
     12 N4          1.5560    3.4680   -1.3040 n         1 MOL     -0.483700
     13 O1          3.5080    4.6220   -1.9180 o         1 MOL     -0.631300
     14 O2         -0.3620    2.2780   -0.6770 o         1 MOL     -0.638100
     15 H1          6.0710    0.2800   -0.8980 h5        1 MOL      0.071000
     16 H2          6.1690    2.8480   -2.8130 h1        1 MOL      0.054600
     17 H3          5.8010    3.9870   -1.4730 h1        1 MOL      0.104100
     18 H4          6.9670    2.6640   -1.2130 h1        1 MOL      0.054600
     19 H5          1.0570   -0.1080    0.9680 h1        1 MOL      0.045500
     20 H6          1.6690   -0.9440   -0.4760 h1        1 MOL      0.063400
     21 H7          0.0600   -0.1900   -0.5020 h1        1 MOL      0.081500
     22 H8          0.3750    4.6310   -2.5980 h1        1 MOL      0.045900
     23 H9          1.2830    5.5530   -1.3790 h1        1 MOL      0.074300
     24 H10        -0.1550    4.6250   -0.9010 h1        1 MOL      0.071400
@<TRIPOS>BOND
     1    1    9 ar  
     2    1   10 ar  
     3    2    3 ar  
     4    2    4 1   
     5    2   10 ar  
     6    3    9 ar  
     7    3   11 1   
     8    4   12 1   
     9    4   13 2   
    10    5   11 1   
    11    5   12 1   
    12    5   14 2   
    13    6   10 1   
    14    7   11 1   
    15    8   12 1   
    16    1   15 1   
    17    6   16 1   
    18    6   17 1   
    19    6   18 1   
    20    7   19 1   
    21    7   20 1   
    22    7   21 1   
    23    8   22 1   
    24    8   23 1   
    25    8   24 1   
@<TRIPOS>SUBSTRUCTURE
     1 CAF         1 TEMP              0 ****  ****    0 ROOT
