@<TRIPOS>MOLECULE
1_bromo_2_chloroethane
    8     7     1     0     0
SMALL
No Charge or Current Charge


@<TRIPOS>ATOM
      1 C1          0.6110   -0.7420    0.5250 c3        1 MOL      0.034400
      2 C2          1.1170   -1.8120   -0.4160 c3        1 MOL     -0.026800
      3 Cl1        -0.4000   -1.4720    1.7930 cl        1 MOL     -0.178100
      4 Br1         2.1690   -0.9870   -1.8330 br        1 MOL     -0.153900
      5 H1          1.4350   -0.2160    1.0180 h1        1 MOL      0.076900
      6 H2          0.0000   -0.0000    0.0000 h1        1 MOL      0.076900
      7 H3          0.3020   -2.3500   -0.9090 h1        1 MOL      0.085300
      8 H4          1.7770   -2.5260    0.0840 h1        1 MOL      0.085300
@<TRIPOS>BOND
     1    1    2 1   
     2    1    3 1   
     3    2    4 1   
     4    1    5 1   
     5    1    6 1   
     6    2    7 1   
     7    2    8 1   
@<TRIPOS>SUBSTRUCTURE
     1 R0_         1 TEMP              0 ****  ****    0 ROOT
