@<TRIPOS>MOLECULE
diethoxymethoxybenzene
   30    30     1     0     0
SMALL
No Charge or Current Charge


@<TRIPOS>ATOM
      1 C1         -5.3210    3.2310    3.9370 ca        1 MOL     -0.162100
      2 C2         -5.2340    3.1890    2.5460 ca        1 MOL     -0.099600
      3 C3         -4.3030    2.6820    4.7160 ca        1 MOL     -0.099600
      4 C4         -4.1290    2.5990    1.9330 ca        1 MOL     -0.174400
      5 C5         -3.1970    2.0910    4.1040 ca        1 MOL     -0.174400
      6 C6         -3.1160    2.0530    2.7160 ca        1 MOL      0.135800
      7 C7          1.8370    2.4180   -0.4700 c3        1 MOL     -0.094800
      8 C8         -2.6470   -0.7910   -1.3970 c3        1 MOL     -0.094800
      9 C9          0.3250    2.5000   -0.4720 c3        1 MOL      0.139200
     10 C10        -1.9460   -0.1270   -0.2320 c3        1 MOL      0.139200
     11 C11        -1.6090    1.9690    0.8330 c3        1 MOL      0.518400
     12 O1         -2.0310    1.4740    2.1150 os        1 MOL     -0.355900
     13 O2         -0.1710    1.9380    0.7370 os        1 MOL     -0.433000
     14 O3         -2.2390    1.2640   -0.2460 os        1 MOL     -0.433000
     15 H1         -6.1830    3.6890    4.4140 ha        1 MOL      0.133000
     16 H2         -6.0270    3.6180    1.9380 ha        1 MOL      0.132500
     17 H3         -4.3710    2.7140    5.8000 ha        1 MOL      0.132500
     18 H4         -4.0660    2.5700    0.8490 ha        1 MOL      0.145800
     19 H5         -2.4070    1.6660    4.7170 ha        1 MOL      0.145800
     20 H6          2.2510    2.8420   -1.3890 hc        1 MOL      0.046100
     21 H7          2.2520    2.9570    0.3870 hc        1 MOL      0.046100
     22 H8          2.1660    1.3770   -0.3820 hc        1 MOL      0.046100
     23 H9         -2.4410   -1.8650   -1.4160 hc        1 MOL      0.046100
     24 H10        -3.7290   -0.6400   -1.3340 hc        1 MOL      0.046100
     25 H11        -2.3190   -0.3520   -2.3450 hc        1 MOL      0.046100
     26 H12        -0.0890    1.9410   -1.3160 h1        1 MOL      0.036100
     27 H13        -0.0030    3.5420   -0.5360 h1        1 MOL      0.036100
     28 H14        -0.8620   -0.2600   -0.3090 h1        1 MOL      0.036100
     29 H15        -2.2910   -0.5500    0.7160 h1        1 MOL      0.036100
     30 H16        -1.8650    3.0340    0.7770 h3        1 MOL      0.078200
@<TRIPOS>BOND
     1    1    2 ar  
     2    1    3 ar  
     3    2    4 ar  
     4    3    5 ar  
     5    4    6 ar  
     6    5    6 ar  
     7    6   12 1   
     8    7    9 1   
     9    8   10 1   
    10    9   13 1   
    11   10   14 1   
    12   11   12 1   
    13   11   13 1   
    14   11   14 1   
    15    1   15 1   
    16    2   16 1   
    17    3   17 1   
    18    4   18 1   
    19    5   19 1   
    20    7   20 1   
    21    7   21 1   
    22    7   22 1   
    23    8   23 1   
    24    8   24 1   
    25    8   25 1   
    26    9   26 1   
    27    9   27 1   
    28   10   28 1   
    29   10   29 1   
    30   11   30 1   
@<TRIPOS>SUBSTRUCTURE
     1 R0_         1 TEMP              0 ****  ****    0 ROOT
