@<TRIPOS>MOLECULE
methyl_p_methoxybenzoate
   22    22     1     0     0
SMALL
No Charge or Current Charge


@<TRIPOS>ATOM
      1 C1          0.8180   -0.4390    0.5640 ca        1 MOL     -0.036700
      2 C2          2.9370   -1.5970    0.6200 ca        1 MOL     -0.036700
      3 C3          0.7990   -0.4060    1.9590 ca        1 MOL     -0.200700
      4 C4          2.9180   -1.5650    2.0140 ca        1 MOL     -0.200700
      5 C5          1.8870   -1.0340   -0.1050 ca        1 MOL     -0.173500
      6 C6          1.8500   -0.9690    2.6840 ca        1 MOL      0.159600
      7 C7          1.9050   -1.0680   -1.5590 c         1 MOL      0.649900
      8 C8          0.7070   -0.3160    4.6650 c3        1 MOL      0.114900
      9 C9          3.1620   -1.7850   -3.4560 c3        1 MOL      0.132200
     10 O1          1.0180   -0.5950   -2.2820 o         1 MOL     -0.548700
     11 O2          1.8310   -0.9390    4.0440 os        1 MOL     -0.323600
     12 O3          3.0280   -1.6890   -2.0340 os        1 MOL     -0.443000
     13 H1         -0.0060    0.0040    0.0090 ha        1 MOL      0.157600
     14 H2          3.7740   -2.0650    0.1080 ha        1 MOL      0.157600
     15 H3         -0.0370    0.0580    2.4750 ha        1 MOL      0.150100
     16 H4          3.7400   -2.0050    2.5730 ha        1 MOL      0.150100
     17 H5         -0.1110   -1.0360    4.7450 h1        1 MOL      0.047500
     18 H6          0.3920    0.5450    4.0690 h1        1 MOL      0.047500
     19 H7          0.9940    0.0200    5.6640 h1        1 MOL      0.047500
     20 H8          4.0560   -2.3640   -3.7000 h1        1 MOL      0.049700
     21 H9          3.2370   -0.7820   -3.8840 h1        1 MOL      0.049700
     22 H10         2.2820   -2.2880   -3.8630 h1        1 MOL      0.049700
@<TRIPOS>BOND
     1    1    3 ar  
     2    1    5 ar  
     3    2    4 ar  
     4    2    5 ar  
     5    3    6 ar  
     6    4    6 ar  
     7    5    7 1   
     8    6   11 1   
     9    7   10 2   
    10    7   12 1   
    11    8   11 1   
    12    9   12 1   
    13    1   13 1   
    14    2   14 1   
    15    3   15 1   
    16    4   16 1   
    17    8   17 1   
    18    8   18 1   
    19    8   19 1   
    20    9   20 1   
    21    9   21 1   
    22    9   22 1   
@<TRIPOS>SUBSTRUCTURE
     1 R0_         1 TEMP              0 ****  ****    0 ROOT
