@<TRIPOS>MOLECULE
phenanthrene
   24    26     1     0     0
SMALL
No Charge or Current Charge


@<TRIPOS>ATOM
      1 C1         -6.2600   -1.8290   -4.9900 ca        1 MOL     -0.127200
      2 C2         -0.8190   -0.2780   -0.6570 ca        1 MOL     -0.127200
      3 C3         -5.4960   -2.8780   -4.5020 ca        1 MOL     -0.127900
      4 C4         -1.0500   -1.6100   -0.9610 ca        1 MOL     -0.127900
      5 C5         -5.9450   -0.5230   -4.6250 ca        1 MOL     -0.118000
      6 C6         -1.6430    0.7030   -1.1990 ca        1 MOL     -0.118000
      7 C7         -4.4190   -2.6210   -3.6500 ca        1 MOL     -0.118500
      8 C8         -2.1050   -1.9610   -1.8070 ca        1 MOL     -0.118500
      9 C9         -4.5790    1.0720   -3.4230 ca        1 MOL     -0.116200
     10 C10        -3.5170    1.3750   -2.5780 ca        1 MOL     -0.116200
     11 C11        -4.8650   -0.2510   -3.7690 ca        1 MOL     -0.035900
     12 C12        -2.7080    0.3640   -2.0510 ca        1 MOL     -0.035900
     13 C13        -4.0670   -1.3060   -3.2550 ca        1 MOL     -0.019200
     14 C14        -2.9670   -0.9920   -2.3790 ca        1 MOL     -0.019200
     15 H1         -7.0980   -2.0230   -5.6520 ha        1 MOL      0.132900
     16 H2         -0.0010    0.0010    0.0000 ha        1 MOL      0.132900
     17 H3         -5.7340   -3.9010   -4.7810 ha        1 MOL      0.132200
     18 H4         -0.4110   -2.3830   -0.5420 ha        1 MOL      0.132200
     19 H5         -6.5570    0.2870   -5.0190 ha        1 MOL      0.132700
     20 H6         -1.4460    1.7440   -0.9480 ha        1 MOL      0.132700
     21 H7         -3.8570   -3.4820   -3.3000 ha        1 MOL      0.132100
     22 H8         -2.2380   -3.0210   -2.0090 ha        1 MOL      0.132100
     23 H9         -5.1820    1.8910   -3.8110 ha        1 MOL      0.133100
     24 H10        -3.3290    2.4200   -2.3350 ha        1 MOL      0.133100
@<TRIPOS>BOND
     1    1    3 ar  
     2    1    5 ar  
     3    2    4 ar  
     4    2    6 ar  
     5    3    7 ar  
     6    4    8 ar  
     7    5   11 ar  
     8    6   12 ar  
     9    7   13 ar  
    10    8   14 ar  
    11    9   10 ar  
    12    9   11 ar  
    13   10   12 ar  
    14   11   13 ar  
    15   12   14 ar  
    16   13   14 ar  
    17    1   15 1   
    18    2   16 1   
    19    3   17 1   
    20    4   18 1   
    21    5   19 1   
    22    6   20 1   
    23    7   21 1   
    24    8   22 1   
    25    9   23 1   
    26   10   24 1   
@<TRIPOS>SUBSTRUCTURE
     1 R0_         1 TEMP              0 ****  ****    0 ROOT
