@<TRIPOS>MOLECULE
E_hex_2_enal
   17    16     1     0     0
SMALL
No Charge or Current Charge


@<TRIPOS>ATOM
      1 C1          1.8260    0.1300   -1.0400 ce        1 MOL     -0.283200
      2 C2          0.9950    0.4380   -0.0380 c2        1 MOL     -0.087900
      3 C3          1.4150   -0.8860   -2.0280 c         1 MOL      0.560200
      4 C4          1.6140    1.8760    3.4820 c3        1 MOL     -0.092300
      5 C5          1.3140    1.4610    1.0140 c3        1 MOL     -0.060800
      6 C6          1.2640    0.8510    2.4150 c3        1 MOL     -0.075400
      7 O1          2.1350   -1.2060   -2.9660 o         1 MOL     -0.525500
      8 H1          2.7960    0.5970   -1.1590 ha        1 MOL      0.147900
      9 H2          0.0270   -0.0520    0.0420 ha        1 MOL      0.123900
     10 H3          0.4220   -1.3410   -1.8770 h4        1 MOL     -0.009100
     11 H4          2.6240    2.2700    3.3310 hc        1 MOL      0.035100
     12 H5          0.9110    2.7150    3.4650 hc        1 MOL      0.035100
     13 H6          1.5730    1.4190    4.4760 hc        1 MOL      0.035100
     14 H7          2.3030    1.9030    0.8400 hc        1 MOL      0.055200
     15 H8          0.5850    2.2770    0.9380 hc        1 MOL      0.055200
     16 H9          0.2620    0.4520    2.6170 hc        1 MOL      0.043300
     17 H10         1.9640    0.0090    2.4840 hc        1 MOL      0.043300
@<TRIPOS>BOND
     1    1    2 2   
     2    1    3 1   
     3    2    5 1   
     4    3    7 2   
     5    4    6 1   
     6    5    6 1   
     7    1    8 1   
     8    2    9 1   
     9    3   10 1   
    10    4   11 1   
    11    4   12 1   
    12    4   13 1   
    13    5   14 1   
    14    5   15 1   
    15    6   16 1   
    16    6   17 1   
@<TRIPOS>SUBSTRUCTURE
     1 R0_         1 TEMP              0 ****  ****    0 ROOT
