@<TRIPOS>MOLECULE
2_methylpentan_2_ol
   21    20     1     0     0
SMALL
No Charge or Current Charge


@<TRIPOS>ATOM
      1 C1          0.9420   -0.1190   -0.5400 c3        1 MOL     -0.091600
      2 C2         -0.2910   -4.8810   -1.5860 c3        1 MOL     -0.108400
      3 C3          1.3840   -3.8070   -3.1120 c3        1 MOL     -0.108400
      4 C4          0.7890   -1.1230   -1.6730 c3        1 MOL     -0.073600
      5 C5          0.4070   -2.5090   -1.1410 c3        1 MOL     -0.086100
      6 C6          0.1540   -3.5660   -2.2350 c3        1 MOL      0.151500
      7 O1         -0.9130   -3.1050   -3.0680 oh        1 MOL     -0.603200
      8 H1          1.7210   -0.4350    0.1610 hc        1 MOL      0.032700
      9 H2          0.0050   -0.0050    0.0130 hc        1 MOL      0.032700
     10 H3          1.2210    0.8620   -0.9390 hc        1 MOL      0.032700
     11 H4         -0.5260   -5.6350   -2.3470 hc        1 MOL      0.042000
     12 H5         -1.2080   -4.7370   -1.0030 hc        1 MOL      0.042000
     13 H6          0.4820   -5.2860   -0.9250 hc        1 MOL      0.042000
     14 H7          1.6310   -2.9220   -3.7080 hc        1 MOL      0.042000
     15 H8          1.1950   -4.6100   -3.8350 hc        1 MOL      0.042000
     16 H9          2.2570   -4.0840   -2.5130 hc        1 MOL      0.042000
     17 H10         0.0240   -0.7590   -2.3690 hc        1 MOL      0.042000
     18 H11         1.7350   -1.1740   -2.2230 hc        1 MOL      0.042000
     19 H12         1.1930   -2.8630   -0.4620 hc        1 MOL      0.044300
     20 H13        -0.5070   -2.3980   -0.5430 hc        1 MOL      0.044300
     21 H14        -0.5770   -3.1250   -3.9760 ho        1 MOL      0.397300
@<TRIPOS>BOND
     1    1    4 1   
     2    2    6 1   
     3    3    6 1   
     4    4    5 1   
     5    5    6 1   
     6    6    7 1   
     7    1    8 1   
     8    1    9 1   
     9    1   10 1   
    10    2   11 1   
    11    2   12 1   
    12    2   13 1   
    13    3   14 1   
    14    3   15 1   
    15    3   16 1   
    16    4   17 1   
    17    4   18 1   
    18    5   19 1   
    19    5   20 1   
    20    7   21 1   
@<TRIPOS>SUBSTRUCTURE
     1 R0_         1 TEMP              0 ****  ****    0 ROOT
