@<TRIPOS>MOLECULE
methyl_pentanoate
   20    19     1     0     0
SMALL
No Charge or Current Charge


@<TRIPOS>ATOM
      1 C1          2.1310    1.0100    4.6320 c         1 MOL      0.627900
      2 C2         -0.5100    0.8300    0.3440 c3        1 MOL     -0.090800
      3 C3          3.2200    1.0850    6.7310 c3        1 MOL      0.128500
      4 C4          0.7560    1.0090    4.0030 c3        1 MOL     -0.124700
      5 C5         -0.5730    0.9180    1.8600 c3        1 MOL     -0.079600
      6 C6          0.8240    0.9590    2.4780 c3        1 MOL     -0.075100
      7 O1          3.1880    0.9580    4.0180 o         1 MOL     -0.539600
      8 O2          1.9960    1.0770    5.9900 os        1 MOL     -0.443000
      9 H1          0.0110    1.6950   -0.0780 hc        1 MOL      0.033900
     10 H2          0.0150   -0.0770    0.0260 hc        1 MOL      0.033900
     11 H3         -1.5200    0.8030   -0.0770 hc        1 MOL      0.033900
     12 H4          3.8140    1.9560    6.4450 h1        1 MOL      0.049500
     13 H5          3.7770    0.1670    6.5270 h1        1 MOL      0.049500
     14 H6          2.9890    1.1380    7.7980 h1        1 MOL      0.049500
     15 H7          0.2100    0.1360    4.3780 hc        1 MOL      0.076900
     16 H8          0.2350    1.9190    4.3200 hc        1 MOL      0.076900
     17 H9         -1.1330    1.8170    2.1450 hc        1 MOL      0.042400
     18 H10        -1.1270    0.0550    2.2480 hc        1 MOL      0.042400
     19 H11         1.3690    1.8350    2.1040 hc        1 MOL      0.053900
     20 H12         1.3930    0.0760    2.1620 hc        1 MOL      0.053900
@<TRIPOS>BOND
     1    1    4 1   
     2    1    7 2   
     3    1    8 1   
     4    2    5 1   
     5    3    8 1   
     6    4    6 1   
     7    5    6 1   
     8    2    9 1   
     9    2   10 1   
    10    2   11 1   
    11    3   12 1   
    12    3   13 1   
    13    3   14 1   
    14    4   15 1   
    15    4   16 1   
    16    5   17 1   
    17    5   18 1   
    18    6   19 1   
    19    6   20 1   
@<TRIPOS>SUBSTRUCTURE
     1 R0_         1 TEMP              0 ****  ****    0 ROOT
