@<TRIPOS>MOLECULE
imidazole
    9     9     1     0     0
SMALL
No Charge or Current Charge


@<TRIPOS>ATOM
      1 C1          2.0280   -0.7310   -0.6600 cc        1 MOL      0.291200
      2 C2          0.6790   -0.7430   -0.3930 cd        1 MOL     -0.261700
      3 C3          1.3580   -2.6790   -1.1960 cd        1 MOL      0.381500
      4 N1          2.4440   -1.9400   -1.1610 nc        1 MOL     -0.667200
      5 N2          0.2640   -1.9970   -0.7410 na        1 MOL     -0.320000
      6 H1          2.7200    0.0860   -0.5180 h4        1 MOL      0.042200
      7 H2          0.0000   -0.0000    0.0000 h4        1 MOL      0.176100
      8 H3          1.2960   -3.7030   -1.5360 h5        1 MOL      0.059800
      9 H4         -0.6790   -2.3560   -0.6740 hn        1 MOL      0.298200
@<TRIPOS>BOND
     1    1    2 ar  
     2    1    4 ar  
     3    2    5 ar  
     4    3    4 ar  
     5    3    5 ar  
     6    1    6 1   
     7    2    7 1   
     8    3    8 1   
     9    5    9 1   
@<TRIPOS>SUBSTRUCTURE
     1 R0_         1 TEMP              0 ****  ****    0 ROOT
