@<TRIPOS>MOLECULE
1,3-dichloro-2-(2,6-dichlorophenyl)benzene
   22    23     1     0     0
SMALL
No Charge or Current Charge


@<TRIPOS>ATOM
      1 C1          1.8850   -1.0360   -0.1120 ca        1 MOL     -0.107100
      2 C2          1.6690   -1.1430    6.9180 ca        1 MOL     -0.105200
      3 C3          0.8070   -0.4630    0.5610 ca        1 MOL     -0.128200
      4 C4          2.9210   -1.6310    0.6080 ca        1 MOL     -0.128900
      5 C5          1.1080   -2.1900    6.1870 ca        1 MOL     -0.130000
      6 C6          2.2740   -0.0750    6.2550 ca        1 MOL     -0.129500
      7 C7          1.8000   -1.0790    2.6760 cp        1 MOL     -0.034400
      8 C8          1.7550   -1.1010    4.1300 cp        1 MOL     -0.033600
      9 C9          0.7640   -0.4840    1.9550 ca        1 MOL      0.049500
     10 C10         2.8780   -1.6520    2.0020 ca        1 MOL      0.049700
     11 C11         1.1510   -2.1690    4.7930 ca        1 MOL      0.049200
     12 C12         2.3170   -0.0540    4.8610 ca        1 MOL      0.048400
     13 Cl1        -0.6020    0.2450    2.7290 cl        1 MOL     -0.073600
     14 Cl2         4.1950   -2.4050    2.8370 cl        1 MOL     -0.073600
     15 Cl3         0.4360   -3.4980    3.9460 cl        1 MOL     -0.073800
     16 Cl4         3.0810    1.3000    4.1000 cl        1 MOL     -0.073700
     17 H1          1.9180   -1.0200   -1.1980 ha        1 MOL      0.141100
     18 H2          1.6360   -1.1600    8.0040 ha        1 MOL      0.143800
     19 H3          0.0080   -0.0040   -0.0170 ha        1 MOL      0.153400
     20 H4          3.7540   -2.0730    0.0670 ha        1 MOL      0.153200
     21 H5          0.6400   -3.0140    6.7200 ha        1 MOL      0.151400
     22 H6          2.7070    0.7320    6.8410 ha        1 MOL      0.152000
@<TRIPOS>BOND
     1    1    3 ar  
     2    1    4 ar  
     3    2    5 ar  
     4    2    6 ar  
     5    3    9 ar  
     6    4   10 ar  
     7    5   11 ar  
     8    6   12 ar  
     9    7    8 1   
    10    7    9 ar  
    11    7   10 ar  
    12    8   11 ar  
    13    8   12 ar  
    14    9   13 1   
    15   10   14 1   
    16   11   15 1   
    17   12   16 1   
    18    1   17 1   
    19    2   18 1   
    20    3   19 1   
    21    4   20 1   
    22    5   21 1   
    23    6   22 1   
@<TRIPOS>SUBSTRUCTURE
     1 MOL         1 TEMP              0 ****  ****    0 ROOT
