@<TRIPOS>MOLECULE
CUP08030_AM1BCC_v1_0
   27    31     1     0     0
SMALL
No Charge or Current Charge


@<TRIPOS>ATOM
      1 C1          1.0560   -4.7100    2.9600 c2        1 MOL     -0.045100
      2 C2          0.2610   -4.1210    3.8700 c2        1 MOL     -0.045100
      3 C3          0.2090   -0.7960    0.6900 c3        1 MOL     -0.112200
      4 C4          0.3480   -2.1770    0.0400 c3        1 MOL     -0.047800
      5 C5         -0.9860   -1.2000    1.5600 c3        1 MOL     -0.047800
      6 C6          0.3950   -3.1870    1.2240 c3        1 MOL     -0.070600
      7 C7         -0.5400   -2.4970    2.2930 c3        1 MOL     -0.070600
      8 C8         -1.0700   -2.3480   -0.5490 cx        1 MOL      0.045200
      9 C9         -1.9660   -1.6940    0.4720 cx        1 MOL      0.045200
     10 C10         1.6400   -3.5950    2.0850 c3        1 MOL      0.095300
     11 C11         0.3130   -2.6120    3.6030 c3        1 MOL      0.095300
     12 C12         1.8260   -2.5500    3.2280 c3        1 MOL      0.145400
     13 O1         -1.8270   -1.1730   -0.8520 os        1 MOL     -0.378800
     14 Cl1         1.3100   -6.3630    2.7070 cl        1 MOL     -0.003100
     15 Cl2        -0.7260   -4.8570    5.0310 cl        1 MOL     -0.003100
     16 Cl3         3.0610   -3.9960    1.1520 cl        1 MOL     -0.074600
     17 Cl4        -0.2150   -1.5690    4.9010 cl        1 MOL     -0.074600
     18 Cl5         2.5470   -0.9790    2.8380 cl        1 MOL     -0.093800
     19 Cl6         2.9530   -3.1180    4.5810 cl        1 MOL     -0.093800
     20 H1          1.0670   -0.4240    1.2060 hc        1 MOL      0.081200
     21 H2         -0.0380   -0.0080   -0.0340 hc        1 MOL      0.081200
     22 H3          1.1390   -2.2800   -0.7040 hc        1 MOL      0.096200
     23 H4         -1.4040   -0.4160    2.1930 hc        1 MOL      0.096200
     24 H5         -0.0770   -4.1150    0.8620 hc        1 MOL      0.076900
     25 H6         -1.4500   -3.1030    2.4360 hc        1 MOL      0.076900
     26 H7         -1.3250   -3.2940   -0.9990 h1        1 MOL      0.113100
     27 H8         -2.8890   -2.1530    0.7860 h1        1 MOL      0.113100
@<TRIPOS>BOND
     1    1    2 2   
     2    1   10 1   
     3    1   14 1   
     4    2   11 1   
     5    2   15 1   
     6    3    4 1   
     7    3    5 1   
     8    4    6 1   
     9    4    8 1   
    10    5    7 1   
    11    5    9 1   
    12    6    7 1   
    13    6   10 1   
    14    7   11 1   
    15    8    9 1   
    16    8   13 1   
    17    9   13 1   
    18   10   12 1   
    19   10   16 1   
    20   11   12 1   
    21   11   17 1   
    22   12   18 1   
    23   12   19 1   
    24    3   20 1   
    25    3   21 1   
    26    4   22 1   
    27    5   23 1   
    28    6   24 1   
    29    7   25 1   
    30    8   26 1   
    31    9   27 1   
@<TRIPOS>SUBSTRUCTURE
     1 R0_         1 TEMP              0 ****  ****    0 ROOT
