@<TRIPOS>MOLECULE
diethyl_ether
   15    14     1     0     0
SMALL
No Charge or Current Charge


@<TRIPOS>ATOM
      1 C1          0.9170    1.4500    0.5860 c3        1 MOL     -0.110900
      2 C2          1.9430    1.3170   -4.0750 c3        1 MOL     -0.110900
      3 C3          1.9100    0.9130   -0.4220 c3        1 MOL      0.130300
      4 C4          2.4160    0.8470   -2.7160 c3        1 MOL      0.130300
      5 O1          1.5170    1.3240   -1.7230 os        1 MOL     -0.425800
      6 H1          1.1900    1.1500    1.6010 hc        1 MOL      0.041700
      7 H2          0.8730    2.5430    0.5400 hc        1 MOL      0.041700
      8 H3         -0.0910    1.0810    0.3690 hc        1 MOL      0.041700
      9 H4          2.6140    0.9680   -4.8640 hc        1 MOL      0.041700
     10 H5          0.9330    0.9490   -4.2810 hc        1 MOL      0.041700
     11 H6          1.8960    2.4110   -4.1100 hc        1 MOL      0.041700
     12 H7          1.9350   -0.1810   -0.3910 h1        1 MOL      0.034200
     13 H8          2.9130    1.3000   -0.2180 h1        1 MOL      0.034200
     14 H9          3.4160    1.2360   -2.5020 h1        1 MOL      0.034200
     15 H10         2.4390   -0.2460   -2.6750 h1        1 MOL      0.034200
@<TRIPOS>BOND
     1    1    3 1   
     2    2    4 1   
     3    3    5 1   
     4    4    5 1   
     5    1    6 1   
     6    1    7 1   
     7    1    8 1   
     8    2    9 1   
     9    2   10 1   
    10    2   11 1   
    11    3   12 1   
    12    3   13 1   
    13    4   14 1   
    14    4   15 1   
@<TRIPOS>SUBSTRUCTURE
     1 R0_         1 TEMP              0 ****  ****    0 ROOT
