@<TRIPOS>MOLECULE
methyl_chloroacetate
   11    10     1     0     0
SMALL
No Charge or Current Charge


@<TRIPOS>ATOM
      1 C1          1.4130   -1.6000    1.6010 c         1 MOL      0.619500
      2 C2         -0.3570   -0.1350    1.0260 c3        1 MOL      0.130800
      3 C3          2.5220   -1.7680    2.6030 c3        1 MOL     -0.025300
      4 O1          1.1540   -2.3620    0.6800 o         1 MOL     -0.507600
      5 O2          0.7390   -0.4470    1.8930 os        1 MOL     -0.446700
      6 Cl1         3.4110   -3.2680    2.2840 cl        1 MOL     -0.129900
      7 H1         -0.3000   -0.7560    0.1290 h1        1 MOL      0.052900
      8 H2         -0.3180    0.9220    0.7540 h1        1 MOL      0.052900
      9 H3         -1.2940   -0.3410    1.5490 h1        1 MOL      0.052900
     10 H4          2.1070   -1.8290    3.6120 h1        1 MOL      0.100300
     11 H5          3.2250   -0.9350    2.5230 h1        1 MOL      0.100300
@<TRIPOS>BOND
     1    1    3 1   
     2    1    4 2   
     3    1    5 1   
     4    2    5 1   
     5    3    6 1   
     6    2    7 1   
     7    2    8 1   
     8    2    9 1   
     9    3   10 1   
    10    3   11 1   
@<TRIPOS>SUBSTRUCTURE
     1 R0_         1 TEMP              0 ****  ****    0 ROOT
