@<TRIPOS>MOLECULE
piperidine
   17    17     1     0     0
SMALL
No Charge or Current Charge


@<TRIPOS>ATOM
      1 C1          0.8730    0.0540    0.6620 c3        1 MOL     -0.072900
      2 C2          0.9310   -1.2000    1.5290 c3        1 MOL     -0.088100
      3 C3          0.7740    1.3020    1.5330 c3        1 MOL     -0.088100
      4 C4         -0.2140   -1.2290    2.5390 c3        1 MOL      0.155700
      5 C5         -0.3660    1.1850    2.5420 c3        1 MOL      0.155700
      6 N1         -0.2340   -0.0200    3.3630 n3        1 MOL     -0.803400
      7 H1          1.7600    0.1100    0.0220 hc        1 MOL      0.039500
      8 H2         -0.0000   -0.0000    0.0000 hc        1 MOL      0.039500
      9 H3          0.8880   -2.0910    0.8930 hc        1 MOL      0.042600
     10 H4          1.8910   -1.2320    2.0600 hc        1 MOL      0.042600
     11 H5          1.7220    1.4520    2.0650 hc        1 MOL      0.042600
     12 H6          0.6200    2.1840    0.9000 hc        1 MOL      0.042600
     13 H7         -1.1740   -1.3460    2.0210 h1        1 MOL      0.034300
     14 H8         -0.0950   -2.1000    3.1920 h1        1 MOL      0.034300
     15 H9         -0.3570    2.0620    3.1980 h1        1 MOL      0.034300
     16 H10        -1.3330    1.1820    2.0240 h1        1 MOL      0.034300
     17 H11        -1.0150   -0.0710    4.0160 hn        1 MOL      0.354500
@<TRIPOS>BOND
     1    1    2 1   
     2    1    3 1   
     3    2    4 1   
     4    3    5 1   
     5    4    6 1   
     6    5    6 1   
     7    1    7 1   
     8    1    8 1   
     9    2    9 1   
    10    2   10 1   
    11    3   11 1   
    12    3   12 1   
    13    4   13 1   
    14    4   14 1   
    15    5   15 1   
    16    5   16 1   
    17    6   17 1   
@<TRIPOS>SUBSTRUCTURE
     1 R0_         1 TEMP              0 ****  ****    0 ROOT
