@<TRIPOS>MOLECULE
SAMPL4_021
   22    23     1     0     0
SMALL
bcc


@<TRIPOS>ATOM
      1 C1          4.8260    0.3920    6.2160 ca        1 MOL     -0.120000
      2 C2          4.8940   -0.8690    5.6230 ca        1 MOL     -0.128000
      3 C3          3.6490    1.1360    6.1390 ca        1 MOL     -0.128000
      4 C4          3.7850   -1.3850    4.9520 ca        1 MOL     -0.113500
      5 C5          2.5400    0.6210    5.4690 ca        1 MOL     -0.113500
      6 C6          2.1630   -1.4950    0.6430 cc        1 MOL      0.291200
      7 C7          2.3250   -1.9620    1.9260 cd        1 MOL     -0.261600
      8 C8          1.0110   -0.1940    1.8710 cd        1 MOL      0.394400
      9 C9          2.6080   -0.6400    4.8750 ca        1 MOL     -0.118300
     10 C10         1.4220   -1.1910    4.1580 c3        1 MOL      0.088600
     11 N1          1.3450   -0.3940    0.6160 nc        1 MOL     -0.668000
     12 N2          1.5810   -1.1180    2.7020 na        1 MOL     -0.207900
     13 H1          5.6890    0.7930    6.7390 ha        1 MOL      0.135000
     14 H2          5.8100   -1.4490    5.6830 ha        1 MOL      0.135500
     15 H3          3.5950    2.1170    6.6020 ha        1 MOL      0.135500
     16 H4          3.8470   -2.3670    4.4920 ha        1 MOL      0.135000
     17 H5          1.6270    1.2080    5.4140 ha        1 MOL      0.135000
     18 H6          2.5950   -1.8960   -0.2620 h4        1 MOL      0.041100
     19 H7          2.8840   -2.7910    2.3380 h4        1 MOL      0.174000
     20 H8          0.3670    0.5950    2.2360 h5        1 MOL      0.060100
     21 H9          1.2370   -2.2440    4.4210 h1        1 MOL      0.066700
     22 H10         0.4980   -0.6500    4.4190 h1        1 MOL      0.066700
@<TRIPOS>BOND
     1    1    2 ar  
     2    1    3 ar  
     3    2    4 ar  
     4    3    5 ar  
     5    4    9 ar  
     6    5    9 ar  
     7    6    7 ar  
     8    6   11 ar  
     9    7   12 ar  
    10    8   11 ar  
    11    8   12 ar  
    12    9   10 1   
    13   10   12 1   
    14    1   13 1   
    15    2   14 1   
    16    3   15 1   
    17    4   16 1   
    18    5   17 1   
    19    6   18 1   
    20    7   19 1   
    21    8   20 1   
    22   10   21 1   
    23   10   22 1   
@<TRIPOS>SUBSTRUCTURE
     1 TMP         1 TEMP              0 ****  ****    0 ROOT
