@<TRIPOS>MOLECULE
anthracene
   24    26     1     0     0
SMALL
No Charge or Current Charge


@<TRIPOS>ATOM
      1 C1          1.1790    1.7780   -0.2720 ca        1 MOL     -0.126600
      2 C2         -0.0140    1.0670   -0.2010 ca        1 MOL     -0.126600
      3 C3         -2.5630    7.9210   -1.6200 ca        1 MOL     -0.126600
      4 C4         -3.7560    7.2090   -1.5490 ca        1 MOL     -0.126600
      5 C5          1.1590    3.1490   -0.5300 ca        1 MOL     -0.117700
      6 C6         -1.2300    1.7250   -0.3870 ca        1 MOL     -0.117700
      7 C7         -1.3470    7.2630   -1.4330 ca        1 MOL     -0.117700
      8 C8         -3.7370    5.8380   -1.2900 ca        1 MOL     -0.117700
      9 C9         -0.0930    5.2070   -0.9820 ca        1 MOL     -0.106600
     10 C10        -2.4840    3.7810   -0.8390 ca        1 MOL     -0.106600
     11 C11        -0.0570    3.8270   -0.7210 ca        1 MOL     -0.033600
     12 C12        -1.2680    3.1050   -0.6480 ca        1 MOL     -0.033600
     13 C13        -1.3100    5.8830   -1.1720 ca        1 MOL     -0.033600
     14 C14        -2.5210    5.1610   -1.0990 ca        1 MOL     -0.033600
     15 H1          2.1260    1.2670   -0.1270 ha        1 MOL      0.132200
     16 H2          0.0000   -0.0000    0.0000 ha        1 MOL      0.132200
     17 H3         -2.5780    8.9880   -1.8210 ha        1 MOL      0.132200
     18 H4         -4.7040    7.7200   -1.6940 ha        1 MOL      0.132200
     19 H5          2.1050    3.6860   -0.5820 ha        1 MOL      0.132000
     20 H6         -2.1510    1.1490   -0.3270 ha        1 MOL      0.132000
     21 H7         -0.4260    7.8390   -1.4930 ha        1 MOL      0.132000
     22 H8         -4.6820    5.3020   -1.2390 ha        1 MOL      0.132000
     23 H9          0.8420    5.7640   -1.0380 ha        1 MOL      0.134100
     24 H10        -3.4190    3.2240   -0.7820 ha        1 MOL      0.134100
@<TRIPOS>BOND
     1    1    2 ar  
     2    1    5 ar  
     3    2    6 ar  
     4    3    4 ar  
     5    3    7 ar  
     6    4    8 ar  
     7    5   11 ar  
     8    6   12 ar  
     9    7   13 ar  
    10    8   14 ar  
    11    9   11 ar  
    12    9   13 ar  
    13   10   12 ar  
    14   10   14 ar  
    15   11   12 ar  
    16   13   14 ar  
    17    1   15 1   
    18    2   16 1   
    19    3   17 1   
    20    4   18 1   
    21    5   19 1   
    22    6   20 1   
    23    7   21 1   
    24    8   22 1   
    25    9   23 1   
    26   10   24 1   
@<TRIPOS>SUBSTRUCTURE
     1 R0_         1 TEMP              0 ****  ****    0 ROOT
