@<TRIPOS>MOLECULE
indane
   19    20     1     0     0
SMALL
No Charge or Current Charge


@<TRIPOS>ATOM
      1 C1         -0.2470   -0.9840    0.3890 ca        1 MOL     -0.131700
      2 C2         -1.0710   -1.0950    1.5210 ca        1 MOL     -0.131700
      3 C3          0.2630   -2.1240   -0.2350 ca        1 MOL     -0.117100
      4 C4         -1.3970   -2.3480    2.0450 ca        1 MOL     -0.117100
      5 C5         -0.0750   -3.3630    0.2840 ca        1 MOL     -0.079600
      6 C6         -0.8960   -3.4730    1.4120 ca        1 MOL     -0.079600
      7 C7          0.3740   -4.7120   -0.1820 c3        1 MOL     -0.045100
      8 C8         -1.0730   -4.9060    1.8050 c3        1 MOL     -0.045100
      9 C9         -0.6480   -5.6220    0.5140 c3        1 MOL     -0.078400
     10 H1          0.0000   -0.0000   -0.0000 ha        1 MOL      0.128900
     11 H2         -1.4540   -0.1960    1.9960 ha        1 MOL      0.128900
     12 H3          0.9090   -2.0360   -1.1020 ha        1 MOL      0.132400
     13 H4         -2.0240   -2.4300    2.9260 ha        1 MOL      0.132400
     14 H5          0.3270   -4.8170   -1.2690 hc        1 MOL      0.052600
     15 H6          1.3900   -4.9130    0.1720 hc        1 MOL      0.052600
     16 H7         -0.4030   -5.1540    2.6340 hc        1 MOL      0.052600
     17 H8         -2.1070   -5.1440    2.0720 hc        1 MOL      0.052600
     18 H9         -1.5270   -5.7390   -0.1370 hc        1 MOL      0.046100
     19 H10        -0.2530   -6.6260    0.7040 hc        1 MOL      0.046100
@<TRIPOS>BOND
     1    1    2 ar  
     2    1    3 ar  
     3    2    4 ar  
     4    3    5 ar  
     5    4    6 ar  
     6    5    6 ar  
     7    5    7 1   
     8    6    8 1   
     9    7    9 1   
    10    8    9 1   
    11    1   10 1   
    12    2   11 1   
    13    3   12 1   
    14    4   13 1   
    15    7   14 1   
    16    7   15 1   
    17    8   16 1   
    18    8   17 1   
    19    9   18 1   
    20    9   19 1   
@<TRIPOS>SUBSTRUCTURE
     1 R0_         1 TEMP              0 ****  ****    0 ROOT
