@<TRIPOS>MOLECULE
acetic_acid
    8     7     1     0     0
SMALL
No Charge or Current Charge


@<TRIPOS>ATOM
      1 C1         -1.6530    0.6110    1.1990 c         1 MOL      0.633900
      2 C2         -1.0280    0.3450   -0.1340 c3        1 MOL     -0.145100
      3 O1         -2.6520    0.0530    1.6300 o         1 MOL     -0.550500
      4 O2         -0.9600    1.5620    1.8710 oh        1 MOL     -0.613300
      5 H1         -1.0540    1.2520   -0.7430 hc        1 MOL      0.076700
      6 H2          0.0000    0.0000    0.0000 hc        1 MOL      0.076700
      7 H3         -1.5930   -0.4380   -0.6490 hc        1 MOL      0.076700
      8 H4         -1.3550    1.7520    2.7490 ho        1 MOL      0.445000
@<TRIPOS>BOND
     1    1    2 1   
     2    1    3 2   
     3    1    4 1   
     4    2    5 1   
     5    2    6 1   
     6    2    7 1   
     7    4    8 1   
@<TRIPOS>SUBSTRUCTURE
     1 R0_         1 TEMP              0 ****  ****    0 ROOT
