@<TRIPOS>MOLECULE
propionaldehyde
   10     9     1     0     0
SMALL
No Charge or Current Charge


@<TRIPOS>ATOM
      1 C1         -1.5420   -2.3180    0.1520 c         1 MOL      0.559400
      2 C2          0.4290   -0.8130    0.5960 c3        1 MOL     -0.086100
      3 C3         -0.6600   -1.6800    1.1970 c3        1 MOL     -0.198500
      4 O1         -1.3950   -2.1900   -1.0580 o         1 MOL     -0.521900
      5 H1         -2.3650   -2.9350    0.5520 h4        1 MOL     -0.008700
      6 H2          0.0000    0.0000   -0.0000 hc        1 MOL      0.040700
      7 H3          1.0810   -1.3990   -0.0600 hc        1 MOL      0.040700
      8 H4          1.0450   -0.3710    1.3850 hc        1 MOL      0.040700
      9 H5         -0.2140   -2.4830    1.7930 hc        1 MOL      0.066900
     10 H6         -1.2990   -1.0800    1.8530 hc        1 MOL      0.066900
@<TRIPOS>BOND
     1    1    3 1   
     2    1    4 2   
     3    2    3 1   
     4    1    5 1   
     5    2    6 1   
     6    2    7 1   
     7    2    8 1   
     8    3    9 1   
     9    3   10 1   
@<TRIPOS>SUBSTRUCTURE
     1 R0_         1 TEMP              0 ****  ****    0 ROOT
