@<TRIPOS>MOLECULE
tribromomethane
    5     4     1     0     0
SMALL
No Charge or Current Charge


@<TRIPOS>ATOM
      1 C1         -0.0000    0.0000    0.0000 c3        1 MOL      0.055600
      2 Br1         0.2840   -1.9160    0.1690 br        1 MOL     -0.062300
      3 Br2        -0.0020    0.8960    1.7250 br        1 MOL     -0.062300
      4 Br3         1.2430    0.8180   -1.2510 br        1 MOL     -0.062300
      5 H1         -0.9990    0.1310   -0.4220 h3        1 MOL      0.131300
@<TRIPOS>BOND
     1    1    2 1   
     2    1    3 1   
     3    1    4 1   
     4    1    5 1   
@<TRIPOS>SUBSTRUCTURE
     1 R0_         1 TEMP              0 ****  ****    0 ROOT
