@<TRIPOS>MOLECULE
CUP08056_AM1BCC_v1_0
   39    39     1     0     0
SMALL
No Charge or Current Charge


@<TRIPOS>ATOM
      1 C1          4.5900   -2.1530   -1.9050 ca        1 MOL      0.007100
      2 C2          2.4150   -2.7090   -2.7590 ca        1 MOL      0.007100
      3 C3          3.6460   -3.1310   -2.2470 ca        1 MOL     -0.190600
      4 C4          4.2980   -0.7830   -2.0820 ca        1 MOL     -0.210300
      5 C5          2.1560   -1.3340   -2.9200 ca        1 MOL     -0.210300
      6 C6          3.0680   -0.3130   -2.5800 ca        1 MOL      0.315100
      7 C7          1.5320    2.3080    0.6770 c3        1 MOL     -0.090800
      8 C8          2.8190    3.1290   -5.9430 c3        1 MOL     -0.090800
      9 C9          1.6310    1.3760   -0.5210 c3        1 MOL     -0.109300
     10 C10         2.2470    2.5050   -4.6800 c3        1 MOL     -0.109300
     11 C11         2.6490    1.8890   -1.5430 c3        1 MOL      0.226500
     12 C12         3.2970    1.6670   -3.9460 c3        1 MOL      0.226500
     13 C13         3.9410   -4.5990   -2.0380 c3        1 MOL      0.704900
     14 N1          2.6970    1.0320   -2.7500 nh        1 MOL     -0.730100
     15 N2          5.3690    0.1300   -1.7420 no        1 MOL      0.317500
     16 N3          0.8620   -0.9860   -3.4700 no        1 MOL      0.317500
     17 O1          5.9920    0.6470   -2.6780 o         1 MOL     -0.184500
     18 O2          5.6080    0.2820   -0.5370 o         1 MOL     -0.184500
     19 O3         -0.0900   -0.9450   -2.6790 o         1 MOL     -0.184500
     20 O4          0.7970   -0.8430   -4.6990 o         1 MOL     -0.184500
     21 F1          5.2560   -4.8990   -2.2100 f         1 MOL     -0.231700
     22 F2          3.6170   -5.0100   -0.7840 f         1 MOL     -0.231700
     23 F3          3.2550   -5.4030   -2.8940 f         1 MOL     -0.231700
     24 H1          5.5600   -2.4550   -1.5050 ha        1 MOL      0.186700
     25 H2          1.6550   -3.4420   -3.0340 ha        1 MOL      0.186700
     26 H3          2.4960    2.3940    1.1880 hc        1 MOL      0.038200
     27 H4          1.2140    3.3100    0.3700 hc        1 MOL      0.038200
     28 H5          0.7990    1.9260    1.3940 hc        1 MOL      0.038200
     29 H6          3.6610    3.7880   -5.7070 hc        1 MOL      0.038200
     30 H7          3.1690    2.3590   -6.6370 hc        1 MOL      0.038200
     31 H8          2.0540    3.7230   -6.4520 hc        1 MOL      0.038200
     32 H9          0.6450    1.2880   -0.9910 hc        1 MOL      0.056500
     33 H10         1.9090    0.3770   -0.1660 hc        1 MOL      0.056500
     34 H11         1.3860    1.8800   -4.9450 hc        1 MOL      0.056500
     35 H12         1.8680    3.3010   -4.0300 hc        1 MOL      0.056500
     36 H13         2.3470    2.9000   -1.8400 h1        1 MOL      0.055900
     37 H14         3.6370    1.9940   -1.0860 h1        1 MOL      0.055900
     38 H15         3.6840    0.9080   -4.6400 h1        1 MOL      0.055900
     39 H16         4.1430    2.3010   -3.6540 h1        1 MOL      0.055900
@<TRIPOS>BOND
     1    1    3 ar  
     2    1    4 ar  
     3    2    3 ar  
     4    2    5 ar  
     5    3   13 1   
     6    4    6 ar  
     7    4   15 1   
     8    5    6 ar  
     9    5   16 1   
    10    6   14 1   
    11    7    9 1   
    12    8   10 1   
    13    9   11 1   
    14   10   12 1   
    15   11   14 1   
    16   12   14 1   
    17   13   21 1   
    18   13   22 1   
    19   13   23 1   
    20   15   17 1   
    21   15   18 1   
    22   16   19 1   
    23   16   20 1   
    24    1   24 1   
    25    2   25 1   
    26    7   26 1   
    27    7   27 1   
    28    7   28 1   
    29    8   29 1   
    30    8   30 1   
    31    8   31 1   
    32    9   32 1   
    33    9   33 1   
    34   10   34 1   
    35   10   35 1   
    36   11   36 1   
    37   11   37 1   
    38   12   38 1   
    39   12   39 1   
@<TRIPOS>SUBSTRUCTURE
     1 R0_         1 TEMP              0 ****  ****    0 ROOT
