@<TRIPOS>MOLECULE
112_trichloroethane
    8     7     1     0     0
SMALL
No Charge or Current Charge


@<TRIPOS>ATOM
      1 C1         -0.3100   -0.9810    0.3740 c3        1 MOL      0.013000
      2 C2          0.3110   -2.0960   -0.4640 c3        1 MOL      0.138800
      3 Cl1        -2.0930   -1.0020    0.3820 cl        1 MOL     -0.154100
      4 Cl2        -0.1400   -1.9650   -2.1820 cl        1 MOL     -0.140800
      5 Cl3        -0.1100   -3.7100    0.1610 cl        1 MOL     -0.140800
      6 H1          0.0180   -1.0560    1.4160 h1        1 MOL      0.088600
      7 H2         -0.0000    0.0000    0.0000 h1        1 MOL      0.088600
      8 H3          1.4010   -2.0170   -0.4190 h2        1 MOL      0.106600
@<TRIPOS>BOND
     1    1    2 1   
     2    1    3 1   
     3    2    4 1   
     4    2    5 1   
     5    1    6 1   
     6    1    7 1   
     7    2    8 1   
@<TRIPOS>SUBSTRUCTURE
     1 R0_         1 TEMP              0 ****  ****    0 ROOT
