@<TRIPOS>MOLECULE
2_ethylpyrazine
   16    16     1     0     0
SMALL
No Charge or Current Charge


@<TRIPOS>ATOM
      1 C1         -1.7560   -1.1750    0.4300 ca        1 MOL      0.273300
      2 C2         -0.4280   -0.9880    0.1160 ca        1 MOL      0.285300
      3 C3         -1.4460   -3.4400    0.3940 ca        1 MOL      0.278700
      4 C4         -0.1180   -3.2540    0.0800 ca        1 MOL      0.300400
      5 C5          1.4590   -4.8590    1.1870 c3        1 MOL     -0.088700
      6 C6          0.7840   -4.4230   -0.1130 c3        1 MOL     -0.126100
      7 N1         -2.2890   -2.4040    0.5750 nb        1 MOL     -0.627600
      8 N2          0.4150   -2.0240   -0.0650 nb        1 MOL     -0.631500
      9 H1         -2.4320   -0.3420    0.5750 h4        1 MOL      0.033600
     10 H2          0.0000   -0.0000   -0.0000 h4        1 MOL      0.033000
     11 H3         -1.8820   -4.4250    0.5130 h4        1 MOL      0.032900
     12 H4          2.0650   -4.0480    1.6040 hc        1 MOL      0.040300
     13 H5          2.1140   -5.7180    1.0150 hc        1 MOL      0.040300
     14 H6          0.7150   -5.1430    1.9380 hc        1 MOL      0.040300
     15 H7          0.2250   -5.2770   -0.5300 hc        1 MOL      0.057800
     16 H8          1.5610   -4.1920   -0.8600 hc        1 MOL      0.057800
@<TRIPOS>BOND
     1    1    2 ar  
     2    1    7 ar  
     3    2    8 ar  
     4    3    4 ar  
     5    3    7 ar  
     6    4    6 1   
     7    4    8 ar  
     8    5    6 1   
     9    1    9 1   
    10    2   10 1   
    11    3   11 1   
    12    5   12 1   
    13    5   13 1   
    14    5   14 1   
    15    6   15 1   
    16    6   16 1   
@<TRIPOS>SUBSTRUCTURE
     1 R0_         1 TEMP              0 ****  ****    0 ROOT
