@<TRIPOS>MOLECULE
25_dimethyltetrahydrofuran
   19    19     1     0     0
SMALL
No Charge or Current Charge


@<TRIPOS>ATOM
      1 C1          0.0430    0.3840    1.0260 c3        1 MOL     -0.106200
      2 C2         -1.3420    0.3840    1.6260 c3        1 MOL     -0.106200
      3 C3          0.7700   -0.5850    1.9440 c3        1 MOL      0.136600
      4 C4         -1.5100   -1.0790    2.0020 c3        1 MOL      0.136600
      5 C5          1.9440   -1.2790    1.2800 c3        1 MOL     -0.100300
      6 C6         -2.4700   -1.3000    3.1550 c3        1 MOL     -0.100300
      7 O1         -0.2020   -1.5600    2.3580 os        1 MOL     -0.430100
      8 H1          0.0020   -0.0040    0.0010 hc        1 MOL      0.053800
      9 H2          0.5050    1.3750    1.0000 hc        1 MOL      0.053800
     10 H3         -1.3600    1.0220    2.5180 hc        1 MOL      0.053800
     11 H4         -2.1140    0.7370    0.9360 hc        1 MOL      0.053800
     12 H5          1.1150   -0.0700    2.8470 h1        1 MOL      0.052100
     13 H6         -1.8430   -1.6600    1.1350 h1        1 MOL      0.052100
     14 H7          2.3740   -2.0310    1.9490 hc        1 MOL      0.041800
     15 H8          1.6260   -1.7780    0.3600 hc        1 MOL      0.041800
     16 H9          2.7250   -0.5560    1.0280 hc        1 MOL      0.041800
     17 H10        -2.0340   -0.9430    4.0920 hc        1 MOL      0.041800
     18 H11        -3.4070   -0.7610    2.9830 hc        1 MOL      0.041800
     19 H12        -2.7000   -2.3640    3.2650 hc        1 MOL      0.041800
@<TRIPOS>BOND
     1    1    2 1   
     2    1    3 1   
     3    2    4 1   
     4    3    5 1   
     5    3    7 1   
     6    4    6 1   
     7    4    7 1   
     8    1    8 1   
     9    1    9 1   
    10    2   10 1   
    11    2   11 1   
    12    3   12 1   
    13    4   13 1   
    14    5   14 1   
    15    5   15 1   
    16    5   16 1   
    17    6   17 1   
    18    6   18 1   
    19    6   19 1   
@<TRIPOS>SUBSTRUCTURE
     1 R0_         1 TEMP              0 ****  ****    0 ROOT
