@<TRIPOS>MOLECULE
phenyl_methyl_sulfide
   16    16     1     0     0
SMALL
No Charge or Current Charge


@<TRIPOS>ATOM
      1 C1          1.8850   -1.0380   -0.1090 ca        1 MOL     -0.125300
      2 C2          0.8180   -0.4410    0.5630 ca        1 MOL     -0.126400
      3 C3          2.9350   -1.6040    0.6140 ca        1 MOL     -0.126400
      4 C4          0.8010   -0.4100    1.9570 ca        1 MOL     -0.111900
      5 C5          2.9180   -1.5730    2.0080 ca        1 MOL     -0.111900
      6 C6          1.8510   -0.9770    2.6800 ca        1 MOL     -0.014500
      7 C7          1.7880    0.8470    4.7910 c3        1 MOL     -0.055800
      8 S1          1.8290   -0.9380    4.4620 ss        1 MOL     -0.199500
      9 H1          1.8980   -1.0620   -1.1950 ha        1 MOL      0.132400
     10 H2          0.0010    0.0000   -0.0010 ha        1 MOL      0.133100
     11 H3          3.7650   -2.0680    0.0900 ha        1 MOL      0.133100
     12 H4         -0.0390    0.0590    2.4630 ha        1 MOL      0.138000
     13 H5          3.7450   -2.0200    2.5540 ha        1 MOL      0.138000
     14 H6          0.8620    1.2760    4.3990 h1        1 MOL      0.065700
     15 H7          2.6390    1.3330    4.3080 h1        1 MOL      0.065700
     16 H8          1.8370    1.0270    5.8680 h1        1 MOL      0.065700
@<TRIPOS>BOND
     1    1    2 ar  
     2    1    3 ar  
     3    2    4 ar  
     4    3    5 ar  
     5    4    6 ar  
     6    5    6 ar  
     7    6    8 1   
     8    7    8 1   
     9    1    9 1   
    10    2   10 1   
    11    3   11 1   
    12    4   12 1   
    13    5   13 1   
    14    7   14 1   
    15    7   15 1   
    16    7   16 1   
@<TRIPOS>SUBSTRUCTURE
     1 R0_         1 TEMP              0 ****  ****    0 ROOT
