@<TRIPOS>MOLECULE
n_decane
   32    31     1     0     0
SMALL
No Charge or Current Charge


@<TRIPOS>ATOM
      1 C1          0.4520   -0.7410    0.2810 c3        1 MOL     -0.089600
      2 C2         -7.0610   -8.7110   -3.0140 c3        1 MOL     -0.089600
      3 C3         -0.2800   -2.0450    0.5520 c3        1 MOL     -0.077600
      4 C4         -6.3260   -7.4080   -3.2890 c3        1 MOL     -0.077600
      5 C5         -1.2770   -2.3690   -0.5600 c3        1 MOL     -0.076800
      6 C6         -5.4700   -6.9880   -2.0940 c3        1 MOL     -0.076800
      7 C7         -2.0370   -3.6650   -0.2670 c3        1 MOL     -0.077100
      8 C8         -4.7180   -5.6720   -2.3180 c3        1 MOL     -0.077100
      9 C9         -3.0070   -4.0070   -1.4000 c3        1 MOL     -0.076700
     10 C10        -3.8040   -5.2920   -1.1510 c3        1 MOL     -0.076700
     11 H1          1.1610   -0.5290    1.0880 hc        1 MOL      0.031400
     12 H2         -0.2490    0.0970    0.2170 hc        1 MOL      0.031400
     13 H3          1.0130   -0.7930   -0.6580 hc        1 MOL      0.031400
     14 H4         -7.6710   -8.9920   -3.8780 hc        1 MOL      0.031400
     15 H5         -6.3560   -9.5250   -2.8170 hc        1 MOL      0.031400
     16 H6         -7.7240   -8.6130   -2.1480 hc        1 MOL      0.031400
     17 H7         -0.8040   -1.9700    1.5120 hc        1 MOL      0.037000
     18 H8          0.4520   -2.8560    0.6440 hc        1 MOL      0.037000
     19 H9         -7.0640   -6.6330   -3.5210 hc        1 MOL      0.037000
     20 H10        -5.6940   -7.5330   -4.1760 hc        1 MOL      0.037000
     21 H11        -0.7450   -2.4620   -1.5140 hc        1 MOL      0.037800
     22 H12        -1.9900   -1.5420   -0.6670 hc        1 MOL      0.037800
     23 H13        -4.7310   -7.7730   -1.8890 hc        1 MOL      0.037800
     24 H14        -6.0980   -6.9060   -1.1990 hc        1 MOL      0.037800
     25 H15        -2.5840   -3.5540    0.6760 hc        1 MOL      0.038800
     26 H16        -1.3220   -4.4860   -0.1340 hc        1 MOL      0.038800
     27 H17        -5.4440   -4.8730   -2.5060 hc        1 MOL      0.038800
     28 H18        -4.1150   -5.7740   -3.2290 hc        1 MOL      0.038800
     29 H19        -2.4410   -4.1310   -2.3310 hc        1 MOL      0.038100
     30 H20        -3.6980   -3.1700   -1.5610 hc        1 MOL      0.038100
     31 H21        -4.3900   -5.1760   -0.2330 hc        1 MOL      0.038100
     32 H22        -3.0910   -6.1060   -0.9730 hc        1 MOL      0.038100
@<TRIPOS>BOND
     1    1    3 1   
     2    2    4 1   
     3    3    5 1   
     4    4    6 1   
     5    5    7 1   
     6    6    8 1   
     7    7    9 1   
     8    8   10 1   
     9    9   10 1   
    10    1   11 1   
    11    1   12 1   
    12    1   13 1   
    13    2   14 1   
    14    2   15 1   
    15    2   16 1   
    16    3   17 1   
    17    3   18 1   
    18    4   19 1   
    19    4   20 1   
    20    5   21 1   
    21    5   22 1   
    22    6   23 1   
    23    6   24 1   
    24    7   25 1   
    25    7   26 1   
    26    8   27 1   
    27    8   28 1   
    28    9   29 1   
    29    9   30 1   
    30   10   31 1   
    31   10   32 1   
@<TRIPOS>SUBSTRUCTURE
     1 R0_         1 TEMP              0 ****  ****    0 ROOT
