@<TRIPOS>MOLECULE
2_methylbutan_1_ol
   18    17     1     0     0
SMALL
No Charge or Current Charge


@<TRIPOS>ATOM
      1 C1          2.5870    3.6330    1.2080 c3        1 MOL     -0.091000
      2 C2          3.4200    2.0800   -1.1960 c3        1 MOL     -0.087600
      3 C3          2.4490    2.1210    1.1140 c3        1 MOL     -0.073200
      4 C4          2.1010    0.0840   -0.4120 c3        1 MOL      0.134200
      5 C5          2.2500    1.6090   -0.3260 c3        1 MOL     -0.095200
      6 O1          1.0090   -0.3630    0.3790 oh        1 MOL     -0.600300
      7 H1          3.5120    3.9820    0.7380 hc        1 MOL      0.034100
      8 H2          1.7420    4.1360    0.7280 hc        1 MOL      0.034100
      9 H3          2.6140    3.9430    2.2570 hc        1 MOL      0.034100
     10 H4          4.3700    1.6480   -0.8640 hc        1 MOL      0.036200
     11 H5          3.5140    3.1710   -1.1650 hc        1 MOL      0.036200
     12 H6          3.2670    1.7910   -2.2420 hc        1 MOL      0.036200
     13 H7          1.5860    1.8190    1.7210 hc        1 MOL      0.039200
     14 H8          3.3290    1.6510    1.5700 hc        1 MOL      0.039200
     15 H9          3.0100   -0.4190   -0.0660 h1        1 MOL      0.038100
     16 H10         1.9240   -0.2240   -1.4480 h1        1 MOL      0.038100
     17 H11         1.3340    2.0580   -0.7310 hc        1 MOL      0.050100
     18 H12         0.3600    0.3590    0.3960 ho        1 MOL      0.397600
@<TRIPOS>BOND
     1    1    3 1   
     2    2    5 1   
     3    3    5 1   
     4    4    5 1   
     5    4    6 1   
     6    1    7 1   
     7    1    8 1   
     8    1    9 1   
     9    2   10 1   
    10    2   11 1   
    11    2   12 1   
    12    3   13 1   
    13    3   14 1   
    14    4   15 1   
    15    4   16 1   
    16    5   17 1   
    17    6   18 1   
@<TRIPOS>SUBSTRUCTURE
     1 R0_         1 TEMP              0 ****  ****    0 ROOT
