@<TRIPOS>MOLECULE
N_methylacetamide
   12    11     1     0     0
SMALL
No Charge or Current Charge


@<TRIPOS>ATOM
      1 C1          1.2720   -0.8050    1.5130 c         1 MOL      0.652600
      2 C2          0.1410    0.0890    1.0810 c3        1 MOL     -0.170500
      3 C3          1.8250   -3.2060    1.8650 c3        1 MOL      0.083600
      4 N1          0.9130   -2.1420    1.5110 n         1 MOL     -0.583300
      5 O1          2.3770   -0.3560    1.8070 o         1 MOL     -0.607600
      6 H1          0.3770    1.1280    1.3290 hc        1 MOL      0.063900
      7 H2          0.0000    0.0000    0.0000 hc        1 MOL      0.063900
      8 H3         -0.7840   -0.1900    1.5930 hc        1 MOL      0.063900
      9 H4          1.8140   -3.3310    2.9490 h1        1 MOL      0.042300
     10 H5          2.8280   -2.9370    1.5270 h1        1 MOL      0.042300
     11 H6          1.5000   -4.1260    1.3760 h1        1 MOL      0.042300
     12 H7         -0.0370   -2.3870    1.2480 hn        1 MOL      0.307000
@<TRIPOS>BOND
     1    1    2 1   
     2    1    4 1   
     3    1    5 2   
     4    3    4 1   
     5    2    6 1   
     6    2    7 1   
     7    2    8 1   
     8    3    9 1   
     9    3   10 1   
    10    3   11 1   
    11    4   12 1   
@<TRIPOS>SUBSTRUCTURE
     1 R0_         1 TEMP              0 ****  ****    0 ROOT
