@<TRIPOS>MOLECULE
tetrachloromethane
    5     4     1     0     0
SMALL
No Charge or Current Charge


@<TRIPOS>ATOM
      1 C1         -1.6170   -0.7010   -0.2650 c3        1 MOL      0.327100
      2 Cl1         0.0000    0.0000    0.0000 cl        1 MOL     -0.081700
      3 Cl2        -1.4940   -2.4780   -0.3020 cl        1 MOL     -0.081700
      4 Cl3        -2.2700   -0.1180   -1.8170 cl        1 MOL     -0.081700
      5 Cl4        -2.7020   -0.2060    1.0580 cl        1 MOL     -0.081700
@<TRIPOS>BOND
     1    1    2 1   
     2    1    3 1   
     3    1    4 1   
     4    1    5 1   
@<TRIPOS>SUBSTRUCTURE
     1 R0_         1 TEMP              0 ****  ****    0 ROOT
