@<TRIPOS>MOLECULE
2_methylbut_2_ene
   15    14     1     0     0
SMALL
No Charge or Current Charge


@<TRIPOS>ATOM
      1 C1          1.9770    0.8550    0.3320 c2        1 MOL     -0.174300
      2 C2          2.5860   -0.1480    0.9930 c2        1 MOL     -0.122100
      3 C3          0.5800    0.9030   -0.1950 c3        1 MOL     -0.056200
      4 C4          4.0020   -0.1280    1.4970 c3        1 MOL     -0.055400
      5 C5          1.8450   -1.4270    1.2840 c3        1 MOL     -0.055400
      6 H1          2.5480    1.7630    0.1430 ha        1 MOL      0.114800
      7 H2          0.0000   -0.0000    0.0000 hc        1 MOL      0.038700
      8 H3          0.0460    1.7460    0.2570 hc        1 MOL      0.038700
      9 H4          0.6020    1.0590   -1.2790 hc        1 MOL      0.038700
     10 H5          4.5300    0.8040    1.2860 hc        1 MOL      0.038700
     11 H6          4.0150   -0.2710    2.5820 hc        1 MOL      0.038700
     12 H7          4.5750   -0.9390    1.0360 hc        1 MOL      0.038700
     13 H8          2.3570   -2.2760    0.8190 hc        1 MOL      0.038700
     14 H9          1.7970   -1.5990    2.3650 hc        1 MOL      0.038700
     15 H10         0.8180   -1.4100    0.9050 hc        1 MOL      0.038700
@<TRIPOS>BOND
     1    1    2 2   
     2    1    3 1   
     3    2    4 1   
     4    2    5 1   
     5    1    6 1   
     6    3    7 1   
     7    3    8 1   
     8    3    9 1   
     9    4   10 1   
    10    4   11 1   
    11    4   12 1   
    12    5   13 1   
    13    5   14 1   
    14    5   15 1   
@<TRIPOS>SUBSTRUCTURE
     1 R0_         1 TEMP              0 ****  ****    0 ROOT
