@<TRIPOS>MOLECULE
n_hexylbenzene
   30    30     1     0     0
SMALL
No Charge or Current Charge


@<TRIPOS>ATOM
      1 C1         -8.0340   -1.1020   -5.8350 ca        1 MOL     -0.133800
      2 C2         -6.9150   -1.7230   -6.3880 ca        1 MOL     -0.128300
      3 C3         -7.8800    0.0370   -5.0440 ca        1 MOL     -0.128300
      4 C4         -5.6410   -1.2060   -6.1510 ca        1 MOL     -0.128300
      5 C5         -6.6070    0.5540   -4.8060 ca        1 MOL     -0.128300
      6 C6         -5.5020   -0.0730   -5.3620 ca        1 MOL     -0.065700
      7 C7          0.5400   -0.1430   -0.8210 c3        1 MOL     -0.089600
      8 C8         -4.1260    0.4850   -5.1050 c3        1 MOL     -0.045100
      9 C9         -0.0660    0.4090   -2.1010 c3        1 MOL     -0.077400
     10 C10        -3.4930   -0.1250   -3.8520 c3        1 MOL     -0.071300
     11 C11        -1.4620   -0.1620   -2.3500 c3        1 MOL     -0.076100
     12 C12        -2.0830    0.4210   -3.6210 c3        1 MOL     -0.078300
     13 H1         -9.0260   -1.5040   -6.0200 ha        1 MOL      0.129900
     14 H2         -7.0350   -2.6100   -7.0040 ha        1 MOL      0.129700
     15 H3         -8.7520    0.5200   -4.6130 ha        1 MOL      0.129700
     16 H4         -4.7750   -1.6970   -6.5850 ha        1 MOL      0.130400
     17 H5         -6.4970    1.4420   -4.1890 ha        1 MOL      0.130400
     18 H6          1.5380    0.2760   -0.6620 hc        1 MOL      0.031400
     19 H7         -0.0770    0.1110    0.0470 hc        1 MOL      0.031400
     20 H8          0.6330   -1.2330   -0.8680 hc        1 MOL      0.031400
     21 H9         -4.1880    1.5760   -5.0040 hc        1 MOL      0.046300
     22 H10        -3.4890    0.3000   -5.9790 hc        1 MOL      0.046300
     23 H11         0.5910    0.1670   -2.9440 hc        1 MOL      0.037200
     24 H12        -0.1170    1.5020   -2.0320 hc        1 MOL      0.037200
     25 H13        -4.1180    0.0900   -2.9770 hc        1 MOL      0.040300
     26 H14        -3.4510   -1.2170   -3.9500 hc        1 MOL      0.040300
     27 H15        -1.4020   -1.2540   -2.4380 hc        1 MOL      0.037300
     28 H16        -2.1080    0.0580   -1.4920 hc        1 MOL      0.037300
     29 H17        -1.4490    0.1810   -4.4830 hc        1 MOL      0.041900
     30 H18        -2.1210    1.5150   -3.5420 hc        1 MOL      0.041900
@<TRIPOS>BOND
     1    1    2 ar  
     2    1    3 ar  
     3    2    4 ar  
     4    3    5 ar  
     5    4    6 ar  
     6    5    6 ar  
     7    6    8 1   
     8    7    9 1   
     9    8   10 1   
    10    9   11 1   
    11   10   12 1   
    12   11   12 1   
    13    1   13 1   
    14    2   14 1   
    15    3   15 1   
    16    4   16 1   
    17    5   17 1   
    18    7   18 1   
    19    7   19 1   
    20    7   20 1   
    21    8   21 1   
    22    8   22 1   
    23    9   23 1   
    24    9   24 1   
    25   10   25 1   
    26   10   26 1   
    27   11   27 1   
    28   11   28 1   
    29   12   29 1   
    30   12   30 1   
@<TRIPOS>SUBSTRUCTURE
     1 R0_         1 TEMP              0 ****  ****    0 ROOT
