@<TRIPOS>MOLECULE
isoamyl_acetate
   23    22     1     0     0
SMALL
No Charge or Current Charge


@<TRIPOS>ATOM
      1 C1         -1.3190   -2.1660   -5.8600 c         1 MOL      0.630300
      2 C2         -0.8360   -1.5100   -7.1180 c3        1 MOL     -0.146000
      3 C3         -2.1890   -1.7200   -0.7220 c3        1 MOL     -0.088600
      4 C4         -0.2100   -3.2510   -0.7600 c3        1 MOL     -0.088600
      5 C5         -0.3810   -1.3240   -2.4190 c3        1 MOL     -0.093200
      6 C6         -1.1140   -2.0990   -3.5070 c3        1 MOL      0.141400
      7 C7         -0.6860   -1.8170   -0.9950 c3        1 MOL     -0.064000
      8 O1         -2.1140   -3.0960   -5.8340 o         1 MOL     -0.543500
      9 O2         -0.7410   -1.5710   -4.7730 os        1 MOL     -0.446600
     10 H1          0.2470   -1.6260   -7.2050 hc        1 MOL      0.074200
     11 H2         -1.1110   -0.4520   -7.1130 hc        1 MOL      0.074200
     12 H3         -1.3090   -1.9880   -7.9810 hc        1 MOL      0.074200
     13 H4         -2.4200   -2.0310    0.3020 hc        1 MOL      0.033800
     14 H5         -2.7590   -2.3570   -1.4070 hc        1 MOL      0.033800
     15 H6         -2.5410   -0.6900   -0.8440 hc        1 MOL      0.033800
     16 H7         -0.6460   -3.9390   -1.4920 hc        1 MOL      0.033800
     17 H8         -0.4950   -3.5960    0.2400 hc        1 MOL      0.033800
     18 H9          0.8800   -3.3250   -0.8290 hc        1 MOL      0.033800
     19 H10         0.6990   -1.3960   -2.6080 hc        1 MOL      0.053200
     20 H11        -0.6210   -0.2570   -2.5130 hc        1 MOL      0.053200
     21 H12        -0.8430   -3.1600   -3.4800 h1        1 MOL      0.058200
     22 H13        -2.1980   -2.0030   -3.4060 h1        1 MOL      0.058200
     23 H14        -0.1720   -1.1630   -0.2790 hc        1 MOL      0.050500
@<TRIPOS>BOND
     1    1    2 1   
     2    1    8 2   
     3    1    9 1   
     4    3    7 1   
     5    4    7 1   
     6    5    6 1   
     7    5    7 1   
     8    6    9 1   
     9    2   10 1   
    10    2   11 1   
    11    2   12 1   
    12    3   13 1   
    13    3   14 1   
    14    3   15 1   
    15    4   16 1   
    16    4   17 1   
    17    4   18 1   
    18    5   19 1   
    19    5   20 1   
    20    6   21 1   
    21    6   22 1   
    22    7   23 1   
@<TRIPOS>SUBSTRUCTURE
     1 R0_         1 TEMP              0 ****  ****    0 ROOT
