@<TRIPOS>MOLECULE
octan_2_one
   25    24     1     0     0
SMALL
No Charge or Current Charge


@<TRIPOS>ATOM
      1 C1         -0.0530    0.1310   -3.3790 c         1 MOL      0.559000
      2 C2          1.3370   -0.0330   -3.9350 c3        1 MOL     -0.200300
      3 C3         -5.2550    4.0630    0.4850 c3        1 MOL     -0.089800
      4 C4         -0.3400    1.3740   -2.5610 c3        1 MOL     -0.178800
      5 C5         -3.8140    4.0260    0.0020 c3        1 MOL     -0.077600
      6 C6         -1.7620    1.4110   -2.0110 c3        1 MOL     -0.070200
      7 C7         -3.5020    2.7210   -0.7310 c3        1 MOL     -0.075900
      8 C8         -2.0610    2.7020   -1.2440 c3        1 MOL     -0.078800
      9 O1         -0.9290   -0.7080   -3.5940 o         1 MOL     -0.528400
     10 H1          1.4680   -1.0570   -4.2960 hc        1 MOL      0.061900
     11 H2          1.4880    0.6600   -4.7650 hc        1 MOL      0.061900
     12 H3          2.0740    0.1510   -3.1490 hc        1 MOL      0.061900
     13 H4         -5.4570    3.2410    1.1790 hc        1 MOL      0.031800
     14 H5         -5.9530    3.9820   -0.3550 hc        1 MOL      0.031800
     15 H6         -5.4570    5.0040    1.0050 hc        1 MOL      0.031800
     16 H7         -0.1600    2.2440   -3.2030 hc        1 MOL      0.062700
     17 H8          0.3890    1.4290   -1.7440 hc        1 MOL      0.062700
     18 H9         -3.6360    4.8790   -0.6630 hc        1 MOL      0.037500
     19 H10        -3.1440    4.1390    0.8620 hc        1 MOL      0.037500
     20 H11        -1.9420    0.5470   -1.3610 hc        1 MOL      0.048200
     21 H12        -2.4610    1.3250   -2.8530 hc        1 MOL      0.048200
     22 H13        -3.6630    1.8730   -0.0550 hc        1 MOL      0.038900
     23 H14        -4.1940    2.5990   -1.5730 hc        1 MOL      0.038900
     24 H15        -1.3730    2.8000   -0.3950 hc        1 MOL      0.042500
     25 H16        -1.8930    3.5660   -1.8990 hc        1 MOL      0.042500
@<TRIPOS>BOND
     1    1    2 1   
     2    1    4 1   
     3    1    9 2   
     4    3    5 1   
     5    4    6 1   
     6    5    7 1   
     7    6    8 1   
     8    7    8 1   
     9    2   10 1   
    10    2   11 1   
    11    2   12 1   
    12    3   13 1   
    13    3   14 1   
    14    3   15 1   
    15    4   16 1   
    16    4   17 1   
    17    5   18 1   
    18    5   19 1   
    19    6   20 1   
    20    6   21 1   
    21    7   22 1   
    22    7   23 1   
    23    8   24 1   
    24    8   25 1   
@<TRIPOS>SUBSTRUCTURE
     1 R0_         1 TEMP              0 ****  ****    0 ROOT
