@<TRIPOS>MOLECULE
methoxyflurane
   12    11     1     0     0
SMALL
No Charge or Current Charge


@<TRIPOS>ATOM
      1 C1         -0.1040   -0.6280    0.8890 c3        1 MOL      0.122100
      2 C2          2.2980   -1.0600    3.6820 c3        1 MOL      0.101100
      3 C3          1.0260   -1.2530    2.8740 c3        1 MOL      0.601000
      4 O1          1.0670   -0.4790    1.6790 os        1 MOL     -0.437400
      5 F1         -0.0650   -0.9060    3.5980 f         1 MOL     -0.232800
      6 F2          0.8920   -2.5600    2.5310 f         1 MOL     -0.232800
      7 Cl1         2.5220    0.6540    4.1190 cl        1 MOL     -0.101400
      8 Cl2         2.2550   -2.0460    5.1650 cl        1 MOL     -0.101400
      9 H1          0.0060   -1.4950    0.2340 h1        1 MOL      0.054100
     10 H2         -0.2610    0.2750    0.2940 h1        1 MOL      0.054100
     11 H3         -0.9610   -0.7800    1.5500 h1        1 MOL      0.054100
     12 H4          3.1750   -1.3680    3.1050 h2        1 MOL      0.119200
@<TRIPOS>BOND
     1    1    4 1   
     2    2    3 1   
     3    2    7 1   
     4    2    8 1   
     5    3    4 1   
     6    3    5 1   
     7    3    6 1   
     8    1    9 1   
     9    1   10 1   
    10    1   11 1   
    11    2   12 1   
@<TRIPOS>SUBSTRUCTURE
     1 R0_         1 TEMP              0 ****  ****    0 ROOT
