@<TRIPOS>MOLECULE
4_hydroxybenzaldehyde
   15    15     1     0     0
SMALL
No Charge or Current Charge


@<TRIPOS>ATOM
      1 C1          0.8180   -0.4390    0.5640 ca        1 MOL     -0.040800
      2 C2          2.9370   -1.5970    0.6200 ca        1 MOL     -0.040800
      3 C3          0.7990   -0.4060    1.9590 ca        1 MOL     -0.202600
      4 C4          2.9180   -1.5650    2.0140 ca        1 MOL     -0.202600
      5 C5          1.8870   -1.0340   -0.1050 ca        1 MOL     -0.234800
      6 C6          1.8500   -0.9690    2.6840 ca        1 MOL      0.157200
      7 C7          1.9050   -1.0680   -1.5590 c         1 MOL      0.577000
      8 O1          2.8210   -1.5790   -2.2090 o         1 MOL     -0.531200
      9 O2          1.8310   -0.9390    4.0440 oh        1 MOL     -0.492500
     10 H1         -0.0060    0.0040    0.0090 ha        1 MOL      0.147100
     11 H2          3.7740   -2.0650    0.1080 ha        1 MOL      0.147100
     12 H3         -0.0370    0.0580    2.4750 ha        1 MOL      0.147900
     13 H4          3.7400   -2.0050    2.5730 ha        1 MOL      0.147900
     14 H5          1.0450   -0.6070   -2.0920 h4        1 MOL     -0.003700
     15 H6          1.1750   -0.2790    4.3350 ho        1 MOL      0.424800
@<TRIPOS>BOND
     1    1    3 ar  
     2    1    5 ar  
     3    2    4 ar  
     4    2    5 ar  
     5    3    6 ar  
     6    4    6 ar  
     7    5    7 1   
     8    6    9 1   
     9    7    8 2   
    10    1   10 1   
    11    2   11 1   
    12    3   12 1   
    13    4   13 1   
    14    7   14 1   
    15    9   15 1   
@<TRIPOS>SUBSTRUCTURE
     1 R0_         1 TEMP              0 ****  ****    0 ROOT
