@<TRIPOS>MOLECULE
fluorene
   23    25     1     0     0
SMALL
No Charge or Current Charge


@<TRIPOS>ATOM
      1 C1         -5.3220   -3.2600    2.6130 ca        1 MOL     -0.132800
      2 C2         -0.3100   -1.0170    0.2250 ca        1 MOL     -0.132800
      3 C3         -5.1930   -4.6580    2.6820 ca        1 MOL     -0.125800
      4 C4          0.5600   -2.0830   -0.0600 ca        1 MOL     -0.125800
      5 C5         -4.2940   -2.4670    2.0930 ca        1 MOL     -0.103800
      6 C6         -1.5670   -1.2470    0.7930 ca        1 MOL     -0.103800
      7 C7         -4.0330   -5.2920    2.2310 ca        1 MOL     -0.118300
      8 C8          0.1920   -3.4010    0.2180 ca        1 MOL     -0.118300
      9 C9         -3.1440   -3.0960    1.6460 cp        1 MOL     -0.040800
     10 C10        -1.9320   -2.5540    1.0690 cp        1 MOL     -0.040800
     11 C11        -3.0200   -4.5020    1.7180 ca        1 MOL     -0.075100
     12 C12        -1.0530   -3.6220    0.7810 ca        1 MOL     -0.075100
     13 C13        -1.6780   -4.9440    1.1720 c3        1 MOL     -0.011800
     14 H1         -6.2340   -2.7890    2.9710 ha        1 MOL      0.131200
     15 H2         -0.0000    0.0000   -0.0000 ha        1 MOL      0.131200
     16 H3         -6.0060   -5.2510    3.0910 ha        1 MOL      0.130800
     17 H4          1.5320   -1.8780   -0.5010 ha        1 MOL      0.130800
     18 H5         -4.4080   -1.3900    2.0470 ha        1 MOL      0.134900
     19 H6         -2.2270   -0.4130    1.0080 ha        1 MOL      0.134900
     20 H7         -3.9350   -6.3700    2.2850 ha        1 MOL      0.133800
     21 H8          0.8650   -4.2230   -0.0020 ha        1 MOL      0.133800
     22 H9         -1.0870   -5.4370    1.9490 hc        1 MOL      0.071900
     23 H10        -1.8090   -5.5850    0.2950 hc        1 MOL      0.071900
@<TRIPOS>BOND
     1    1    3 ar  
     2    1    5 ar  
     3    2    4 ar  
     4    2    6 ar  
     5    3    7 ar  
     6    4    8 ar  
     7    5    9 ar  
     8    6   10 ar  
     9    7   11 ar  
    10    8   12 ar  
    11    9   10 1   
    12    9   11 ar  
    13   10   12 ar  
    14   11   13 1   
    15   12   13 1   
    16    1   14 1   
    17    2   15 1   
    18    3   16 1   
    19    4   17 1   
    20    5   18 1   
    21    6   19 1   
    22    7   20 1   
    23    8   21 1   
    24   13   22 1   
    25   13   23 1   
@<TRIPOS>SUBSTRUCTURE
     1 R0_         1 TEMP              0 ****  ****    0 ROOT
