@<TRIPOS>MOLECULE
2_chloroaniline
   14    14     1     0     0
SMALL
No Charge or Current Charge


@<TRIPOS>ATOM
      1 C1          1.8850   -1.0380   -0.1090 ca        1 MOL     -0.087600
      2 C2          0.8180   -0.4410    0.5630 ca        1 MOL     -0.171000
      3 C3          2.9350   -1.6040    0.6140 ca        1 MOL     -0.191600
      4 C4          0.8010   -0.4100    1.9570 ca        1 MOL     -0.082600
      5 C5          2.9180   -1.5730    2.0080 ca        1 MOL      0.164400
      6 C6          1.8510   -0.9770    2.6800 ca        1 MOL     -0.053900
      7 N1          3.9970   -2.1540    2.7120 nh        1 MOL     -0.829900
      8 Cl1         1.7900   -0.9170    4.4050 cl        1 MOL     -0.105800
      9 H1          1.8970   -1.0610   -1.1950 ha        1 MOL      0.133100
     10 H2         -0.0000   -0.0000   -0.0000 ha        1 MOL      0.136700
     11 H3          3.7610   -2.0660    0.0790 ha        1 MOL      0.135600
     12 H4         -0.0380    0.0580    2.4650 ha        1 MOL      0.144700
     13 H5          4.5500   -2.8540    2.2620 hn        1 MOL      0.403900
     14 H6          4.1270   -1.9250    3.6750 hn        1 MOL      0.403900
@<TRIPOS>BOND
     1    1    2 ar  
     2    1    3 ar  
     3    2    4 ar  
     4    3    5 ar  
     5    4    6 ar  
     6    5    6 ar  
     7    5    7 1   
     8    6    8 1   
     9    1    9 1   
    10    2   10 1   
    11    3   11 1   
    12    4   12 1   
    13    7   13 1   
    14    7   14 1   
@<TRIPOS>SUBSTRUCTURE
     1 R0_         1 TEMP              0 ****  ****    0 ROOT
