@<TRIPOS>MOLECULE
SAMPL4_051
   27    29     1     0     0
SMALL
bcc


@<TRIPOS>ATOM
      1 C1          7.9760   -1.3270    3.4160 ca        1 MOL     -0.115000
      2 C2          7.5680   -0.1080    3.9520 ca        1 MOL     -0.120000
      3 C3          7.1380   -2.0250    2.5460 ca        1 MOL     -0.087000
      4 C4          6.3200    0.4200    3.6200 ca        1 MOL     -0.083000
      5 C5          1.5910   -1.8480   -0.2620 ca        1 MOL     -0.150000
      6 C6          1.1830   -0.6280    0.2740 ca        1 MOL     -0.105000
      7 C7          5.8840   -1.5000    2.2100 ca        1 MOL     -0.123600
      8 C8          5.4760   -0.2770    2.7470 ca        1 MOL     -0.129600
      9 C9          3.6840   -1.6790    0.9430 ca        1 MOL     -0.186600
     10 C10         3.2750   -0.4560    1.4790 ca        1 MOL     -0.184600
     11 C11         2.8390   -2.3760    0.0700 ca        1 MOL      0.189600
     12 C12         2.0210    0.0690    1.1430 ca        1 MOL      0.152100
     13 C13         5.0030   -2.2450    1.2880 c         1 MOL      0.602300
     14 C14         4.1560    0.2890    2.4010 c         1 MOL      0.600300
     15 N1          3.1830   -3.6170   -0.5120 nh        1 MOL     -0.834200
     16 O1          5.3960   -3.3140    0.8380 o         1 MOL     -0.556100
     17 O2          3.8200    1.3630    2.8860 o         1 MOL     -0.562100
     18 O3          1.5620    1.2570    1.6320 oh        1 MOL     -0.504100
     19 H1          8.9480   -1.7360    3.6770 ha        1 MOL      0.141000
     20 H2          8.2220    0.4330    4.6300 ha        1 MOL      0.141000
     21 H3          7.4810   -2.9740    2.1440 ha        1 MOL      0.157000
     22 H4          6.0260    1.3730    4.0520 ha        1 MOL      0.158000
     23 H5          0.9250   -2.3790   -0.9380 ha        1 MOL      0.143000
     24 H6          0.2090   -0.2270    0.0080 ha        1 MOL      0.159000
     25 H7          2.5150   -4.0840   -1.0890 hn        1 MOL      0.419800
     26 H8          4.0490   -4.0470   -0.2600 hn        1 MOL      0.419800
     27 H9          2.2220    1.6520    2.2220 ho        1 MOL      0.457000
@<TRIPOS>BOND
     1    1    2 ar  
     2    1    3 ar  
     3    2    4 ar  
     4    3    7 ar  
     5    4    8 ar  
     6    5    6 ar  
     7    5   11 ar  
     8    6   12 ar  
     9    7    8 ar  
    10    7   13 1   
    11    8   14 1   
    12    9   10 ar  
    13    9   11 ar  
    14    9   13 1   
    15   10   12 ar  
    16   10   14 1   
    17   11   15 1   
    18   12   18 1   
    19   13   16 2   
    20   14   17 2   
    21    1   19 1   
    22    2   20 1   
    23    3   21 1   
    24    4   22 1   
    25    5   23 1   
    26    6   24 1   
    27   15   25 1   
    28   15   26 1   
    29   18   27 1   
@<TRIPOS>SUBSTRUCTURE
     1 TMP         1 TEMP              0 ****  ****    0 ROOT
