@<TRIPOS>MOLECULE
2,7-dichlorodibenzo-p-dioxin
   22    24     1     0     0
SMALL
No Charge or Current Charge


@<TRIPOS>ATOM
      1 C1         -3.1490    0.4150    1.2200 ca        1 MOL     -0.108600
      2 C2         -4.8170   -4.8180    0.9820 ca        1 MOL     -0.107100
      3 C3         -1.8580    0.7400    0.8000 ca        1 MOL     -0.121700
      4 C4         -6.1070   -5.1430    1.4010 ca        1 MOL     -0.121800
      5 C5         -1.4370   -1.5820    0.2690 ca        1 MOL     -0.112800
      6 C6         -6.5290   -2.8210    1.9320 ca        1 MOL     -0.112600
      7 C7         -3.5800   -0.9100    1.1630 ca        1 MOL      0.062400
      8 C8         -4.3860   -3.4940    1.0380 ca        1 MOL      0.062300
      9 C9         -2.7270   -1.9050    0.6890 ca        1 MOL      0.073100
     10 C10        -5.2390   -2.4980    1.5120 ca        1 MOL      0.071500
     11 C11        -1.0040   -0.2570    0.3260 ca        1 MOL      0.018800
     12 C12        -6.9620   -4.1460    1.8750 ca        1 MOL      0.018500
     13 O1         -4.8560   -1.1830    1.5850 os        1 MOL     -0.218100
     14 O2         -3.1090   -3.2200    0.6160 os        1 MOL     -0.219700
     15 Cl1         0.5870    0.1500   -0.1910 cl        1 MOL     -0.079200
     16 Cl2        -8.5520   -4.5530    2.3920 cl        1 MOL     -0.078800
     17 H1         -3.8080    1.1960    1.5880 ha        1 MOL      0.160400
     18 H2         -4.1570   -5.5990    0.6140 ha        1 MOL      0.161300
     19 H3         -1.5310    1.7760    0.8480 ha        1 MOL      0.155900
     20 H4         -6.4340   -6.1790    1.3530 ha        1 MOL      0.155600
     21 H5         -0.7760   -2.3630   -0.0990 ha        1 MOL      0.170100
     22 H6         -7.1890   -2.0400    2.3000 ha        1 MOL      0.170500
@<TRIPOS>BOND
     1    1    3 ar  
     2    1    7 ar  
     3    2    4 ar  
     4    2    8 ar  
     5    3   11 ar  
     6    4   12 ar  
     7    5    9 ar  
     8    5   11 ar  
     9    6   10 ar  
    10    6   12 ar  
    11    7    9 ar  
    12    7   13 ar  
    13    8   10 ar  
    14    8   14 ar  
    15    9   14 ar  
    16   10   13 ar  
    17   11   15 1   
    18   12   16 1   
    19    1   17 1   
    20    2   18 1   
    21    3   19 1   
    22    4   20 1   
    23    5   21 1   
    24    6   22 1   
@<TRIPOS>SUBSTRUCTURE
     1 MOL         1 TEMP              0 ****  ****    0 ROOT
