@<TRIPOS>MOLECULE
undecan_2_one
   34    33     1     0     0
SMALL
No Charge or Current Charge


@<TRIPOS>ATOM
      1 C1          0.4680    3.5260    1.1490 c         1 MOL      0.559500
      2 C2          1.5440    2.5370    1.5150 c3        1 MOL     -0.199700
      3 C3        -10.8310    5.5590    1.2340 c3        1 MOL     -0.089700
      4 C4         -0.9640    3.0710    1.3770 c3        1 MOL     -0.179700
      5 C5         -9.4160    6.0020    0.8980 c3        1 MOL     -0.078000
      6 C6         -2.0120    4.1090    0.9780 c3        1 MOL     -0.070100
      7 C7         -8.3970    4.9060    1.2120 c3        1 MOL     -0.076800
      8 C8         -3.4440    3.6150    1.2130 c3        1 MOL     -0.079600
      9 C9         -6.9800    5.3430    0.8360 c3        1 MOL     -0.076100
     10 C10        -4.4670    4.6900    0.8400 c3        1 MOL     -0.076400
     11 C11        -5.9140    4.2850    1.1370 c3        1 MOL     -0.076400
     12 O1          0.7540    4.6420    0.7180 o         1 MOL     -0.528800
     13 H1          1.4620    2.2820    2.5740 hc        1 MOL      0.062000
     14 H2          2.5280    2.9770    1.3310 hc        1 MOL      0.062000
     15 H3          1.4390    1.6390    0.9010 hc        1 MOL      0.062000
     16 H4        -11.1120    4.6720    0.6570 hc        1 MOL      0.031500
     17 H5        -10.9250    5.3220    2.2990 hc        1 MOL      0.031500
     18 H6        -11.5430    6.3570    1.0000 hc        1 MOL      0.031500
     19 H7         -1.0630    2.8550    2.4470 hc        1 MOL      0.063300
     20 H8         -1.1290    2.1390    0.8240 hc        1 MOL      0.063300
     21 H9         -9.1770    6.9070    1.4680 hc        1 MOL      0.037400
     22 H10        -9.3650    6.2650   -0.1650 hc        1 MOL      0.037400
     23 H11        -1.8480    5.0140    1.5750 hc        1 MOL      0.047600
     24 H12        -1.8840    4.3930   -0.0740 hc        1 MOL      0.047600
     25 H13        -8.4460    4.6680    2.2800 hc        1 MOL      0.038600
     26 H14        -8.6580    3.9930    0.6620 hc        1 MOL      0.038600
     27 H15        -3.6220    2.7110    0.6210 hc        1 MOL      0.042600
     28 H16        -3.5680    3.3410    2.2680 hc        1 MOL      0.042600
     29 H17        -6.9450    5.5610   -0.2390 hc        1 MOL      0.038100
     30 H18        -6.7320    6.2820    1.3450 hc        1 MOL      0.038100
     31 H19        -4.3610    4.9520   -0.2190 hc        1 MOL      0.039300
     32 H20        -4.2480    5.6040    1.4050 hc        1 MOL      0.039300
     33 H21        -6.1540    3.3810    0.5640 hc        1 MOL      0.038800
     34 H22        -5.9830    4.0050    2.1960 hc        1 MOL      0.038800
@<TRIPOS>BOND
     1    1    2 1   
     2    1    4 1   
     3    1   12 2   
     4    3    5 1   
     5    4    6 1   
     6    5    7 1   
     7    6    8 1   
     8    7    9 1   
     9    8   10 1   
    10    9   11 1   
    11   10   11 1   
    12    2   13 1   
    13    2   14 1   
    14    2   15 1   
    15    3   16 1   
    16    3   17 1   
    17    3   18 1   
    18    4   19 1   
    19    4   20 1   
    20    5   21 1   
    21    5   22 1   
    22    6   23 1   
    23    6   24 1   
    24    7   25 1   
    25    7   26 1   
    26    8   27 1   
    27    8   28 1   
    28    9   29 1   
    29    9   30 1   
    30   10   31 1   
    31   10   32 1   
    32   11   33 1   
    33   11   34 1   
@<TRIPOS>SUBSTRUCTURE
     1 R0_         1 TEMP              0 ****  ****    0 ROOT
