@<TRIPOS>MOLECULE
4_methylbenzaldehyde
   17    17     1     0     0
SMALL
No Charge or Current Charge


@<TRIPOS>ATOM
      1 C1          0.8180   -0.4390    0.5640 ca        1 MOL     -0.073700
      2 C2          2.9370   -1.5970    0.6200 ca        1 MOL     -0.073700
      3 C3          0.7990   -0.4060    1.9590 ca        1 MOL     -0.148000
      4 C4          2.9180   -1.5650    2.0140 ca        1 MOL     -0.148000
      5 C5          1.8870   -1.0340   -0.1050 ca        1 MOL     -0.203500
      6 C6          1.8500   -0.9690    2.6840 ca        1 MOL     -0.033100
      7 C7          1.9050   -1.0700   -1.5590 c         1 MOL      0.573500
      8 C8          1.8300   -0.9330    4.1750 c3        1 MOL     -0.068200
      9 O1          2.8220   -1.5810   -2.2080 o         1 MOL     -0.528300
     10 H1         -0.0060    0.0030    0.0090 ha        1 MOL      0.143500
     11 H2          3.7750   -2.0650    0.1080 ha        1 MOL      0.143500
     12 H3         -0.0370    0.0600    2.4720 ha        1 MOL      0.137100
     13 H4          3.7410   -2.0050    2.5710 ha        1 MOL      0.137100
     14 H5          1.0460   -0.6100   -2.0930 h4        1 MOL     -0.003400
     15 H6          2.7330   -0.4420    4.5570 hc        1 MOL      0.048400
     16 H7          0.9530   -0.3880    4.5480 hc        1 MOL      0.048400
     17 H8          1.7790   -1.9450    4.5970 hc        1 MOL      0.048400
@<TRIPOS>BOND
     1    1    3 ar  
     2    1    5 ar  
     3    2    4 ar  
     4    2    5 ar  
     5    3    6 ar  
     6    4    6 ar  
     7    5    7 1   
     8    6    8 1   
     9    7    9 2   
    10    1   10 1   
    11    2   11 1   
    12    3   12 1   
    13    4   13 1   
    14    7   14 1   
    15    8   15 1   
    16    8   16 1   
    17    8   17 1   
@<TRIPOS>SUBSTRUCTURE
     1 R0_         1 TEMP              0 ****  ****    0 ROOT
