@<TRIPOS>MOLECULE
4_acetylpyridine
   16    16     1     0     0
SMALL
No Charge or Current Charge


@<TRIPOS>ATOM
      1 C1          0.1830   -0.3460    1.0110 ca        1 MOL     -0.201900
      2 C2          1.5260   -0.4070    3.0050 ca        1 MOL     -0.201900
      3 C3         -0.7040   -1.2000    1.6470 ca        1 MOL      0.383100
      4 C4          0.5790   -1.2580    3.5520 ca        1 MOL      0.383100
      5 C5          1.3170    0.0530    1.7100 ca        1 MOL     -0.137500
      6 C6          2.2800    0.9480    1.0890 c         1 MOL      0.569100
      7 C7          2.0550    1.4540   -0.3320 c3        1 MOL     -0.194200
      8 N1         -0.5340   -1.6670    2.9040 nb        1 MOL     -0.645100
      9 O1          3.3050    1.3220    1.6930 o         1 MOL     -0.521200
     10 H1         -0.0090   -0.0060   -0.0020 ha        1 MOL      0.156200
     11 H2          2.4010   -0.1150    3.5770 ha        1 MOL      0.156200
     12 H3         -1.6030   -1.5410    1.1450 h4        1 MOL      0.027400
     13 H4          0.6960   -1.6450    4.5590 h4        1 MOL      0.027400
     14 H5          1.1330    2.0400   -0.3730 hc        1 MOL      0.066500
     15 H6          2.0130    0.6080   -1.0240 hc        1 MOL      0.066500
     16 H7          2.8820    2.1010   -0.6410 hc        1 MOL      0.066500
@<TRIPOS>BOND
     1    1    3 ar  
     2    1    5 ar  
     3    2    4 ar  
     4    2    5 ar  
     5    3    8 ar  
     6    4    8 ar  
     7    5    6 1   
     8    6    7 1   
     9    6    9 2   
    10    1   10 1   
    11    2   11 1   
    12    3   12 1   
    13    4   13 1   
    14    7   14 1   
    15    7   15 1   
    16    7   16 1   
@<TRIPOS>SUBSTRUCTURE
     1 R0_         1 TEMP              0 ****  ****    0 ROOT
