@<TRIPOS>MOLECULE
fluoromethane
    5     4     1     0     0
SMALL
No Charge or Current Charge


@<TRIPOS>ATOM
      1 C1         -0.4410    0.7980   -0.6010 c3        1 MOL      0.156900
      2 F1         -1.2210    1.5670    0.2010 f         1 MOL     -0.255400
      3 H1          0.3440    1.4240   -1.0300 h1        1 MOL      0.032800
      4 H2          0.0000   -0.0000    0.0000 h1        1 MOL      0.032800
      5 H3         -1.0610    0.3750   -1.3930 h1        1 MOL      0.032800
@<TRIPOS>BOND
     1    1    2 1   
     2    1    3 1   
     3    1    4 1   
     4    1    5 1   
@<TRIPOS>SUBSTRUCTURE
     1 R0_         1 TEMP              0 ****  ****    0 ROOT
