@<TRIPOS>MOLECULE
methyl_trimethylacetate
   20    19     1     0     0
SMALL
No Charge or Current Charge


@<TRIPOS>ATOM
      1 C1          2.9200   -1.5220    1.0970 c         1 MOL      0.630500
      2 C2          0.7040   -0.4120    0.7310 c3        1 MOL     -0.086200
      3 C3          2.5940    0.0300   -0.8450 c3        1 MOL     -0.086200
      4 C4          1.4940   -2.2150   -0.8430 c3        1 MOL     -0.086200
      5 C5          3.1760   -2.9930    2.9350 c3        1 MOL      0.127100
      6 C6          1.9240   -1.0340    0.0390 c3        1 MOL     -0.084900
      7 O1          4.0730   -1.1200    1.2000 o         1 MOL     -0.538300
      8 O2          2.3400   -2.4610    1.9030 os        1 MOL     -0.435800
      9 H1          1.0050    0.3980    1.4050 hc        1 MOL      0.046100
     10 H2          0.0000    0.0000   -0.0000 hc        1 MOL      0.046100
     11 H3          0.1620   -1.1490    1.3330 hc        1 MOL      0.046100
     12 H4          2.9230    0.8900   -0.2500 hc        1 MOL      0.046100
     13 H5          1.9060    0.4000   -1.6140 hc        1 MOL      0.046100
     14 H6          3.4780   -0.3730   -1.3520 hc        1 MOL      0.046100
     15 H7          0.9620   -2.9780   -0.2650 hc        1 MOL      0.046100
     16 H8          0.8280   -1.8860   -1.6480 hc        1 MOL      0.046100
     17 H9          2.3640   -2.7010   -1.3000 hc        1 MOL      0.046100
     18 H10         4.1360   -2.4710    2.9330 h1        1 MOL      0.048600
     19 H11         3.3300   -4.0610    2.7660 h1        1 MOL      0.048600
     20 H12         2.6860   -2.8460    3.9010 h1        1 MOL      0.048600
@<TRIPOS>BOND
     1    1    6 1   
     2    1    7 2   
     3    1    8 1   
     4    2    6 1   
     5    3    6 1   
     6    4    6 1   
     7    5    8 1   
     8    2    9 1   
     9    2   10 1   
    10    2   11 1   
    11    3   12 1   
    12    3   13 1   
    13    3   14 1   
    14    4   15 1   
    15    4   16 1   
    16    4   17 1   
    17    5   18 1   
    18    5   19 1   
    19    5   20 1   
@<TRIPOS>SUBSTRUCTURE
     1 R0_         1 TEMP              0 ****  ****    0 ROOT
