@<TRIPOS>MOLECULE
trichloromethane
    5     4     1     0     0
SMALL
No Charge or Current Charge


@<TRIPOS>ATOM
      1 C1         -0.0000    0.0000    0.0000 c3        1 MOL      0.228400
      2 Cl1        -0.8880   -1.5300   -0.0870 cl        1 MOL     -0.116000
      3 Cl2         0.3150    0.4420    1.6870 cl        1 MOL     -0.116000
      4 Cl3         1.5170   -0.1080   -0.9090 cl        1 MOL     -0.116000
      5 H1         -0.6160    0.7820   -0.4510 h3        1 MOL      0.119500
@<TRIPOS>BOND
     1    1    2 1   
     2    1    3 1   
     3    1    4 1   
     4    1    5 1   
@<TRIPOS>SUBSTRUCTURE
     1 R0_         1 TEMP              0 ****  ****    0 ROOT
