@<TRIPOS>MOLECULE
prop_2_en_1_ol
   10     9     1     0     0
SMALL
No Charge or Current Charge


@<TRIPOS>ATOM
      1 C1         -0.4680    0.6050    0.7690 c2        1 MOL     -0.207000
      2 C2         -1.5850    0.1860    1.3740 c2        1 MOL     -0.198700
      3 C3         -2.2690   -1.1040    1.0630 c3        1 MOL      0.161300
      4 O1         -2.3090   -1.8950    2.2420 oh        1 MOL     -0.597100
      5 H1         -0.0040    1.5510    1.0260 ha        1 MOL      0.114200
      6 H2          0.0000    0.0000    0.0000 ha        1 MOL      0.114200
      7 H3         -2.0350    0.8200    2.1340 ha        1 MOL      0.130500
      8 H4         -1.7500   -1.6680    0.2810 h1        1 MOL      0.041400
      9 H5         -3.2950   -0.9100    0.7360 h1        1 MOL      0.041400
     10 H6         -1.4800   -1.7300    2.7190 ho        1 MOL      0.399600
@<TRIPOS>BOND
     1    1    2 2   
     2    2    3 1   
     3    3    4 1   
     4    1    5 1   
     5    1    6 1   
     6    2    7 1   
     7    3    8 1   
     8    3    9 1   
     9    4   10 1   
@<TRIPOS>SUBSTRUCTURE
     1 R0_         1 TEMP              0 ****  ****    0 ROOT
