@<TRIPOS>MOLECULE
3_methylpyridine
   14    14     1     0     0
SMALL
No Charge or Current Charge


@<TRIPOS>ATOM
      1 C1          0.2060   -0.4420    0.9680 ca        1 MOL     -0.242300
      2 C2          1.3350   -0.0800    1.6950 ca        1 MOL     -0.096100
      3 C3         -0.6460   -1.3850    1.5200 ca        1 MOL      0.387400
      4 C4          0.6600   -1.5970    3.3980 ca        1 MOL      0.392300
      5 C5          1.5730   -0.6640    2.9340 ca        1 MOL     -0.181700
      6 C6          2.7720   -0.2980    3.7360 c3        1 MOL     -0.057000
      7 N1         -0.4480   -1.9740    2.7210 nb        1 MOL     -0.662300
      8 H1         -0.0000   -0.0000    0.0000 ha        1 MOL      0.142100
      9 H2          2.0220    0.6560    1.2880 ha        1 MOL      0.137200
     10 H3         -1.5400   -1.7020    0.9920 h4        1 MOL      0.021200
     11 H4          0.7930   -2.0870    4.3580 h4        1 MOL      0.021100
     12 H5          2.8660    0.7930    3.8140 hc        1 MOL      0.046100
     13 H6          2.7180   -0.7140    4.7520 hc        1 MOL      0.046100
     14 H7          3.6930   -0.6920    3.2840 hc        1 MOL      0.046100
@<TRIPOS>BOND
     1    1    2 ar  
     2    1    3 ar  
     3    2    5 ar  
     4    3    7 ar  
     5    4    5 ar  
     6    4    7 ar  
     7    5    6 1   
     8    1    8 1   
     9    2    9 1   
    10    3   10 1   
    11    4   11 1   
    12    6   12 1   
    13    6   13 1   
    14    6   14 1   
@<TRIPOS>SUBSTRUCTURE
     1 R0_         1 TEMP              0 ****  ****    0 ROOT
