@<TRIPOS>MOLECULE
34_dimethylpyridine
   17    17     1     0     0
SMALL
No Charge or Current Charge


@<TRIPOS>ATOM
      1 C1          0.2060   -0.4420    0.9680 ca        1 MOL     -0.244100
      2 C2         -0.6460   -1.3850    1.5200 ca        1 MOL      0.390300
      3 C3          0.6600   -1.5970    3.3980 ca        1 MOL      0.395900
      4 C4          1.3350   -0.0800    1.6950 ca        1 MOL     -0.032100
      5 C5          1.5730   -0.6640    2.9340 ca        1 MOL     -0.185000
      6 C6          2.2740    0.9330    1.1280 c3        1 MOL     -0.065600
      7 C7          2.7670   -0.3140    3.7540 c3        1 MOL     -0.054600
      8 N1         -0.4480   -1.9740    2.7210 nb        1 MOL     -0.666400
      9 H1         -0.0090   -0.0050   -0.0010 ha        1 MOL      0.141500
     10 H2         -1.5410   -1.7000    0.9930 h4        1 MOL      0.020400
     11 H3          0.7930   -2.0860    4.3590 h4        1 MOL      0.020300
     12 H4          3.3090    0.5860    1.2210 hc        1 MOL      0.048100
     13 H5          2.0620    1.1210    0.0680 hc        1 MOL      0.048100
     14 H6          2.1800    1.8950    1.6470 hc        1 MOL      0.048100
     15 H7          2.8760    0.7760    3.8270 hc        1 MOL      0.045000
     16 H8          2.6890   -0.7240    4.7700 hc        1 MOL      0.045000
     17 H9          3.6870   -0.7260    3.3170 hc        1 MOL      0.045000
@<TRIPOS>BOND
     1    1    2 ar  
     2    1    4 ar  
     3    2    8 ar  
     4    3    5 ar  
     5    3    8 ar  
     6    4    5 ar  
     7    4    6 1   
     8    5    7 1   
     9    1    9 1   
    10    2   10 1   
    11    3   11 1   
    12    6   12 1   
    13    6   13 1   
    14    6   14 1   
    15    7   15 1   
    16    7   16 1   
    17    7   17 1   
@<TRIPOS>SUBSTRUCTURE
     1 R0_         1 TEMP              0 ****  ****    0 ROOT
