@<TRIPOS>MOLECULE
propanoic_acid
   11    10     1     0     0
SMALL
No Charge or Current Charge


@<TRIPOS>ATOM
      1 C1         -0.9080   -1.5560   -2.1110 c         1 MOL      0.632800
      2 C2          0.7690   -0.5810   -0.5200 c3        1 MOL     -0.090100
      3 C3          0.3920   -0.8060   -1.9740 c3        1 MOL     -0.123300
      4 O1         -1.6170   -1.9440   -1.1940 o         1 MOL     -0.549400
      5 O2         -1.1980   -1.7500   -3.4230 oh        1 MOL     -0.610600
      6 H1          1.7150   -0.0350   -0.4520 hc        1 MOL      0.047400
      7 H2          0.0000    0.0000    0.0000 hc        1 MOL      0.047400
      8 H3          0.8840   -1.5330    0.0090 hc        1 MOL      0.047400
      9 H4          0.2900    0.1610   -2.4760 hc        1 MOL      0.077300
     10 H5          1.1800   -1.3850   -2.4670 hc        1 MOL      0.077300
     11 H6         -2.0410   -2.2370   -3.5430 ho        1 MOL      0.443900
@<TRIPOS>BOND
     1    1    3 1   
     2    1    4 2   
     3    1    5 1   
     4    2    3 1   
     5    2    6 1   
     6    2    7 1   
     7    2    8 1   
     8    3    9 1   
     9    3   10 1   
    10    5   11 1   
@<TRIPOS>SUBSTRUCTURE
     1 R0_         1 TEMP              0 ****  ****    0 ROOT
