@<TRIPOS>MOLECULE
22_dimethylpropane
   17    16     1     0     0
SMALL
No Charge or Current Charge


@<TRIPOS>ATOM
      1 C1         -0.6140   -0.1250    0.8990 c3        1 MOL     -0.082000
      2 C2          1.1850    0.8590    2.3420 c3        1 MOL     -0.082000
      3 C3          1.1080   -1.6160    1.9470 c3        1 MOL     -0.082000
      4 C4         -0.6370   -0.5190    3.3750 c3        1 MOL     -0.082000
      5 C5          0.2610   -0.3500    2.1410 c3        1 MOL     -0.060100
      6 H1         -1.2320    0.7730    1.0080 hc        1 MOL      0.032300
      7 H2          0.0000    0.0000    0.0000 hc        1 MOL      0.032300
      8 H3         -1.2860   -0.9730    0.7290 hc        1 MOL      0.032300
      9 H4          1.8230    0.7280    3.2230 hc        1 MOL      0.032300
     10 H5          0.6080    1.7800    2.4830 hc        1 MOL      0.032300
     11 H6          1.8400    1.0060    1.4760 hc        1 MOL      0.032300
     12 H7          0.4740   -2.4980    1.8000 hc        1 MOL      0.032300
     13 H8          1.7610   -1.5250    1.0720 hc        1 MOL      0.032300
     14 H9          1.7440   -1.8040    2.8200 hc        1 MOL      0.032300
     15 H10        -1.2560    0.3700    3.5390 hc        1 MOL      0.032300
     16 H11        -0.0400   -0.6810    4.2790 hc        1 MOL      0.032300
     17 H12        -1.3100   -1.3770    3.2610 hc        1 MOL      0.032300
@<TRIPOS>BOND
     1    1    5 1   
     2    2    5 1   
     3    3    5 1   
     4    4    5 1   
     5    1    6 1   
     6    1    7 1   
     7    1    8 1   
     8    2    9 1   
     9    2   10 1   
    10    2   11 1   
    11    3   12 1   
    12    3   13 1   
    13    3   14 1   
    14    4   15 1   
    15    4   16 1   
    16    4   17 1   
@<TRIPOS>SUBSTRUCTURE
     1 R0_         1 TEMP              0 ****  ****    0 ROOT
