@<TRIPOS>MOLECULE
ZINC01597767
    9     9     1     0     0
SMALL
bcc


@<TRIPOS>ATOM
      1 C1         -5.3600   -6.2800   -1.6460 cc        1 MOL      -0.1568
      2 C2         -4.4750   -5.6360   -2.5590 cc        1 MOL      -0.1568
      3 C3         -3.2660   -5.3250   -1.9760 cd        1 MOL      -0.1694
      4 S1         -3.2020   -5.8080   -0.3350 ss        1 MOL       0.0086
      5 C4         -4.7930   -6.4360   -0.4000 cd        1 MOL      -0.1694
      6 H1         -6.3600   -6.6120   -1.8910 ha        1 MOL       0.1524
      7 H2         -4.7130   -5.4130   -3.5910 ha        1 MOL       0.1524
      8 H3         -2.4180   -4.8370   -2.4350 h4        1 MOL       0.1695
      9 H4         -5.2370   -6.8880    0.4750 h4        1 MOL       0.1695
@<TRIPOS>BOND
     1    1    2 1   
     2    1    5 2   
     3    1    6 1   
     4    2    3 2   
     5    2    7 1   
     6    3    4 1   
     7    3    8 1   
     8    4    5 1   
     9    5    9 1   
@<TRIPOS>SUBSTRUCTURE
     1 MOL         1 TEMP              0 ****  ****    0 ROOT
