@<TRIPOS>MOLECULE
ethyl_hexanoate
   26    25     1     0     0
SMALL
No Charge or Current Charge


@<TRIPOS>ATOM
      1 C1          1.6360   -0.8880    5.0710 c         1 MOL      0.631000
      2 C2         -0.0780    4.7910    2.7190 c3        1 MOL     -0.090100
      3 C3          3.6410   -3.0220    7.2710 c3        1 MOL     -0.106800
      4 C4          1.7850    0.6050    4.8760 c3        1 MOL     -0.125900
      5 C5         -0.2160    3.2850    2.8780 c3        1 MOL     -0.077000
      6 C6          0.7150    1.2020    3.9620 c3        1 MOL     -0.075600
      7 C7          0.8870    2.7120    3.7690 c3        1 MOL     -0.079400
      8 C8          2.5430   -2.7110    6.2760 c3        1 MOL      0.137100
      9 O1          0.7900   -1.5880    4.5330 o         1 MOL     -0.542000
     10 O2          2.5780   -1.3150    5.9630 os        1 MOL     -0.442200
     11 H1         -0.1440    5.2950    3.6880 hc        1 MOL      0.033100
     12 H2          0.8820    5.0500    2.2610 hc        1 MOL      0.033100
     13 H3         -0.8760    5.1790    2.0780 hc        1 MOL      0.033100
     14 H4          3.6420   -4.0830    7.5320 hc        1 MOL      0.046800
     15 H5          4.6210   -2.7580    6.8590 hc        1 MOL      0.046800
     16 H6          3.5110   -2.4330    8.1850 hc        1 MOL      0.046800
     17 H7          2.7800    0.8160    4.4680 hc        1 MOL      0.075900
     18 H8          1.7100    1.0680    5.8660 hc        1 MOL      0.075900
     19 H9         -0.1780    2.8140    1.8890 hc        1 MOL      0.037800
     20 H10        -1.1980    3.0570    3.3080 hc        1 MOL      0.037800
     21 H11        -0.2680    1.0120    4.4090 hc        1 MOL      0.053100
     22 H12         0.7250    0.6990    2.9870 hc        1 MOL      0.053100
     23 H13         1.8640    2.9260    3.3200 hc        1 MOL      0.044000
     24 H14         0.8650    3.2110    4.7450 hc        1 MOL      0.044000
     25 H15         1.5630   -2.9540    6.6970 h1        1 MOL      0.054900
     26 H16         2.6880   -3.2820    5.3540 h1        1 MOL      0.054900
@<TRIPOS>BOND
     1    1    4 1   
     2    1    9 2   
     3    1   10 1   
     4    2    5 1   
     5    3    8 1   
     6    4    6 1   
     7    5    7 1   
     8    6    7 1   
     9    8   10 1   
    10    2   11 1   
    11    2   12 1   
    12    2   13 1   
    13    3   14 1   
    14    3   15 1   
    15    3   16 1   
    16    4   17 1   
    17    4   18 1   
    18    5   19 1   
    19    5   20 1   
    20    6   21 1   
    21    6   22 1   
    22    7   23 1   
    23    7   24 1   
    24    8   25 1   
    25    8   26 1   
@<TRIPOS>SUBSTRUCTURE
     1 R0_         1 TEMP              0 ****  ****    0 ROOT
