@<TRIPOS>MOLECULE
2_nitrotoluene
   17    17     1     0     0
SMALL
No Charge or Current Charge


@<TRIPOS>ATOM
      1 C1          1.8850   -1.0380   -0.1090 ca        1 MOL     -0.096200
      2 C2          0.8180   -0.4410    0.5630 ca        1 MOL     -0.133600
      3 C3          2.9350   -1.6040    0.6140 ca        1 MOL     -0.132300
      4 C4          0.8010   -0.4100    1.9570 ca        1 MOL     -0.079700
      5 C5          2.9180   -1.5730    2.0080 ca        1 MOL     -0.009700
      6 C6          1.8510   -0.9770    2.6800 ca        1 MOL     -0.155600
      7 C7          4.0580   -2.1900    2.7530 c3        1 MOL     -0.084300
      8 N1          1.8120   -0.9360    4.1010 no        1 MOL      0.306500
      9 O1          0.8330   -0.3910    4.6650 o         1 MOL     -0.199700
     10 O2          2.7570   -1.4460    4.7480 o         1 MOL     -0.199700
     11 H1          1.8990   -1.0610   -1.1950 ha        1 MOL      0.143400
     12 H2          0.0010    0.0000   -0.0010 ha        1 MOL      0.147300
     13 H3          3.7620   -2.0670    0.0810 ha        1 MOL      0.146500
     14 H4         -0.0380    0.0580    2.4660 ha        1 MOL      0.158000
     15 H5          4.5610   -1.4350    3.3670 hc        1 MOL      0.063000
     16 H6          3.7120   -3.0000    3.4060 hc        1 MOL      0.063000
     17 H7          4.7910   -2.6260    2.0630 hc        1 MOL      0.063000
@<TRIPOS>BOND
     1    1    2 ar  
     2    1    3 ar  
     3    2    4 ar  
     4    3    5 ar  
     5    4    6 ar  
     6    5    6 ar  
     7    5    7 1   
     8    6    8 1   
     9    8    9 1   
    10    8   10 1   
    11    1   11 1   
    12    2   12 1   
    13    3   13 1   
    14    4   14 1   
    15    7   15 1   
    16    7   16 1   
    17    7   17 1   
@<TRIPOS>SUBSTRUCTURE
     1 R0_         1 TEMP              0 ****  ****    0 ROOT
