@<TRIPOS>MOLECULE
3_hydroxybenzaldehyde
   15    15     1     0     0
SMALL
No Charge or Current Charge


@<TRIPOS>ATOM
      1 C1          0.8320   -0.3950    0.5750 ca        1 MOL     -0.105800
      2 C2          1.8990   -1.0140   -0.0770 ca        1 MOL     -0.115800
      3 C3          0.8350   -0.2830    1.9660 ca        1 MOL     -0.184000
      4 C4          2.9710   -1.4090    2.0520 ca        1 MOL     -0.106200
      5 C5          2.9680   -1.5200    0.6620 ca        1 MOL     -0.163400
      6 C6          1.9040   -0.7900    2.7040 ca        1 MOL      0.110900
      7 C7          4.0810   -2.1650   -0.0180 c         1 MOL      0.571400
      8 O1          4.1380   -2.2940   -1.2440 o         1 MOL     -0.519800
      9 O2          1.9070   -0.6790    4.0610 oh        1 MOL     -0.495700
     10 H1         -0.0000   -0.0010   -0.0000 ha        1 MOL      0.139100
     11 H2          1.8870   -1.0950   -1.1610 ha        1 MOL      0.146700
     12 H3          0.0020    0.2020    2.4670 ha        1 MOL      0.137300
     13 H4          3.8020   -1.8020    2.6320 ha        1 MOL      0.162600
     14 H5          4.9100   -2.5530    0.6130 h4        1 MOL      0.001100
     15 H6          1.2270   -0.0340    4.3250 ho        1 MOL      0.421500
@<TRIPOS>BOND
     1    1    2 ar  
     2    1    3 ar  
     3    2    5 ar  
     4    3    6 ar  
     5    4    5 ar  
     6    4    6 ar  
     7    5    7 1   
     8    6    9 1   
     9    7    8 2   
    10    1   10 1   
    11    2   11 1   
    12    3   12 1   
    13    4   13 1   
    14    7   14 1   
    15    9   15 1   
@<TRIPOS>SUBSTRUCTURE
     1 R0_         1 TEMP              0 ****  ****    0 ROOT
