@<TRIPOS>MOLECULE
SAMPL4_027
   17    16     1     0     0
SMALL
bcc


@<TRIPOS>ATOM
      1 C1         -6.1760    0.8030    0.1260 c3        1 MOL     -0.095400
      2 C2         -6.1870    1.7610   -1.0530 c3        1 MOL      0.134400
      3 C3         -5.2920   -0.4070   -0.1310 c3        1 MOL      0.134400
      4 N1         -7.0990    3.8350   -1.7790 no        1 MOL      0.379200
      5 N2         -4.4950   -2.4230    0.8500 no        1 MOL      0.379200
      6 O1         -6.4310    3.5310   -2.7680 o         1 MOL     -0.174000
      7 O2         -3.9360   -2.4750   -0.2460 o         1 MOL     -0.174000
      8 O3         -7.8030    4.8290   -1.5820 o         1 MOL     -0.174000
      9 O4         -4.4500   -3.2170    1.7930 o         1 MOL     -0.174000
     10 O5         -7.0180    2.8700   -0.7370 os        1 MOL     -0.350000
     11 O6         -5.3010   -1.2610    1.0050 os        1 MOL     -0.350000
     12 H1         -5.8440    1.3250    1.0330 hc        1 MOL      0.087700
     13 H2         -7.2000    0.4800    0.3550 hc        1 MOL      0.087700
     14 H3         -5.1780    2.1320   -1.2640 h1        1 MOL      0.072700
     15 H4         -6.5820    1.2740   -1.9490 h1        1 MOL      0.072700
     16 H5         -4.2570   -0.1020   -0.3140 h1        1 MOL      0.072700
     17 H6         -5.6400   -0.9790   -0.9970 h1        1 MOL      0.072700
@<TRIPOS>BOND
     1    1    2 1   
     2    1    3 1   
     3    2   10 1   
     4    3   11 1   
     5    4    6 1   
     6    4    8 1   
     7    4   10 1   
     8    5    7 1   
     9    5    9 1   
    10    5   11 1   
    11    1   12 1   
    12    1   13 1   
    13    2   14 1   
    14    2   15 1   
    15    3   16 1   
    16    3   17 1   
@<TRIPOS>SUBSTRUCTURE
     1 TMP         1 TEMP              0 ****  ****    0 ROOT
