@<TRIPOS>MOLECULE
n_pentyl_propanoate
   26    25     1     0     0
SMALL
No Charge or Current Charge


@<TRIPOS>ATOM
      1 C1          5.2420   -2.0420   -5.0270 c         1 MOL      0.629900
      2 C2          6.7590   -2.9230   -6.8260 c3        1 MOL     -0.089500
      3 C3          0.8520   -0.3690    0.6910 c3        1 MOL     -0.089800
      4 C4          6.0000   -3.2390   -5.5500 c3        1 MOL     -0.124700
      5 C5          1.6510   -1.4310   -0.0470 c3        1 MOL     -0.077900
      6 C6          2.2940   -0.8690   -1.3150 c3        1 MOL     -0.076400
      7 C7          3.1240   -1.9290   -2.0350 c3        1 MOL     -0.087900
      8 C8          3.8010   -1.3660   -3.2760 c3        1 MOL      0.140100
      9 O1          5.2340   -0.9320   -5.5430 o         1 MOL     -0.541300
     10 O2          4.5660   -2.3950   -3.8880 os        1 MOL     -0.445800
     11 H1          7.4870   -2.1210   -6.6630 hc        1 MOL      0.046400
     12 H2          7.2980   -3.8080   -7.1780 hc        1 MOL      0.046400
     13 H3          6.0770   -2.5990   -7.6190 hc        1 MOL      0.046400
     14 H4          1.4920    0.4680    0.9890 hc        1 MOL      0.032300
     15 H5          0.0450    0.0220    0.0620 hc        1 MOL      0.032300
     16 H6          0.4030   -0.7920    1.5950 hc        1 MOL      0.032300
     17 H7          6.7060   -3.5650   -4.7790 hc        1 MOL      0.075800
     18 H8          5.2840   -4.0450   -5.7440 hc        1 MOL      0.075800
     19 H9          0.9890   -2.2660   -0.3040 hc        1 MOL      0.038400
     20 H10         2.4270   -1.8250    0.6200 hc        1 MOL      0.038400
     21 H11         1.5130   -0.4940   -1.9880 hc        1 MOL      0.043200
     22 H12         2.9330   -0.0160   -1.0550 hc        1 MOL      0.043200
     23 H13         2.4900   -2.7780   -2.3210 hc        1 MOL      0.052000
     24 H14         3.8850   -2.3390   -1.3590 hc        1 MOL      0.052000
     25 H15         4.4730   -0.5420   -3.0150 h1        1 MOL      0.054200
     26 H16         3.0600   -1.0070   -3.9970 h1        1 MOL      0.054200
@<TRIPOS>BOND
     1    1    4 1   
     2    1    9 2   
     3    1   10 1   
     4    2    4 1   
     5    3    5 1   
     6    5    6 1   
     7    6    7 1   
     8    7    8 1   
     9    8   10 1   
    10    2   11 1   
    11    2   12 1   
    12    2   13 1   
    13    3   14 1   
    14    3   15 1   
    15    3   16 1   
    16    4   17 1   
    17    4   18 1   
    18    5   19 1   
    19    5   20 1   
    20    6   21 1   
    21    6   22 1   
    22    7   23 1   
    23    7   24 1   
    24    8   25 1   
    25    8   26 1   
@<TRIPOS>SUBSTRUCTURE
     1 R0_         1 TEMP              0 ****  ****    0 ROOT
