@<TRIPOS>MOLECULE
m_bis_trifluoromethyl__benzene
   18    18     1     0     0
SMALL
No Charge or Current Charge


@<TRIPOS>ATOM
      1 C1          1.8850   -1.0380   -0.1090 ca        1 MOL     -0.105900
      2 C2          0.8180   -0.4410    0.5630 ca        1 MOL     -0.105900
      3 C3          2.9350   -1.6040    0.6140 ca        1 MOL     -0.093000
      4 C4          0.8010   -0.4100    1.9570 ca        1 MOL     -0.093000
      5 C5          2.9180   -1.5730    2.0080 ca        1 MOL     -0.108300
      6 C6          1.8510   -0.9770    2.6800 ca        1 MOL     -0.108300
      7 C7          4.0540   -2.1850    2.7600 c3        1 MOL      0.690600
      8 C8          1.8110   -0.9320    4.1720 c3        1 MOL      0.690600
      9 F1          5.0140   -2.7240    1.9540 f         1 MOL     -0.232100
     10 F2          4.7150   -1.3010    3.5620 f         1 MOL     -0.232100
     11 F3          3.6530   -3.1980    3.5820 f         1 MOL     -0.232100
     12 F4          0.7000   -0.3140    4.6700 f         1 MOL     -0.232100
     13 F5          1.8240   -2.1670    4.7550 f         1 MOL     -0.232100
     14 F6          2.8740   -0.2630    4.7040 f         1 MOL     -0.232100
     15 H1          1.8970   -1.0620   -1.1940 ha        1 MOL      0.150300
     16 H2         -0.0000   -0.0010   -0.0010 ha        1 MOL      0.150300
     17 H3          3.7610   -2.0670    0.0810 ha        1 MOL      0.162800
     18 H4         -0.0350    0.0570    2.4710 ha        1 MOL      0.162800
@<TRIPOS>BOND
     1    1    2 ar  
     2    1    3 ar  
     3    2    4 ar  
     4    3    5 ar  
     5    4    6 ar  
     6    5    6 ar  
     7    5    7 1   
     8    6    8 1   
     9    7    9 1   
    10    7   10 1   
    11    7   11 1   
    12    8   12 1   
    13    8   13 1   
    14    8   14 1   
    15    1   15 1   
    16    2   16 1   
    17    3   17 1   
    18    4   18 1   
@<TRIPOS>SUBSTRUCTURE
     1 R0_         1 TEMP              0 ****  ****    0 ROOT
