@<TRIPOS>MOLECULE
methyl_trifluoroacetate
   11    10     1     0     0
SMALL
No Charge or Current Charge


@<TRIPOS>ATOM
      1 C1          0.1400   -1.0130    2.4550 c         1 MOL      0.589700
      2 C2         -0.4490   -0.9870    0.1660 c3        1 MOL      0.126100
      3 C3         -0.4290   -1.1780    3.8270 c3        1 MOL      0.624100
      4 O1          1.3260   -0.8200    2.2250 o         1 MOL     -0.467800
      5 O2         -0.8570   -1.1190    1.5320 os        1 MOL     -0.405200
      6 F1         -1.7690   -1.3870    3.8020 f         1 MOL     -0.218000
      7 F2          0.1220   -2.2320    4.4810 f         1 MOL     -0.218000
      8 F3         -0.2160   -0.0810    4.5960 f         1 MOL     -0.218000
      9 H1          0.2580   -0.1590    0.0750 h1        1 MOL      0.062400
     10 H2         -1.3250   -0.8030   -0.4610 h1        1 MOL      0.062400
     11 H3          0.0360   -1.9130   -0.1510 h1        1 MOL      0.062400
@<TRIPOS>BOND
     1    1    3 1   
     2    1    4 2   
     3    1    5 1   
     4    2    5 1   
     5    3    6 1   
     6    3    7 1   
     7    3    8 1   
     8    2    9 1   
     9    2   10 1   
    10    2   11 1   
@<TRIPOS>SUBSTRUCTURE
     1 R0_         1 TEMP              0 ****  ****    0 ROOT
