@<TRIPOS>MOLECULE
dmetm.xyz
   13    12     1     0     0
SMALL
No Charge or Current Charge


@<TRIPOS>ATOM
      1 C1          0.0000    0.0000    0.0000 c3        1 MOL      0.128300
      2 C2          2.4440    1.4200   -2.3020 c3        1 MOL      0.128400
      3 C3          1.9920    1.2500    0.0000 c3        1 MOL      0.329800
      4 O1          1.4020    0.0000    0.0000 os        1 MOL     -0.439400
      5 O2          1.7960    1.9480   -1.1770 os        1 MOL     -0.439500
      6 H1         -0.3160   -1.0330    0.0490 h1        1 MOL      0.053700
      7 H2         -0.3870    0.5320    0.8670 h1        1 MOL      0.014100
      8 H3         -0.3980    0.4570   -0.9000 h1        1 MOL      0.026500
      9 H4          2.2420    2.0890   -3.1260 h1        1 MOL      0.053700
     10 H5          2.0760    0.4280   -2.5430 h1        1 MOL      0.026500
     11 H6          3.5190    1.3680   -2.1410 h1        1 MOL      0.014100
     12 H7          1.5780    1.8720    0.7860 h2        1 MOL      0.051900
     13 H8          3.0490    1.0780    0.1760 h2        1 MOL      0.051900
@<TRIPOS>BOND
     1    1    4 1   
     2    2    5 1   
     3    3    4 1   
     4    3    5 1   
     5    1    6 1   
     6    1    7 1   
     7    1    8 1   
     8    2    9 1   
     9    2   10 1   
    10    2   11 1   
    11    3   12 1   
    12    3   13 1   
@<TRIPOS>SUBSTRUCTURE
     1 MOL         1 TEMP              0 ****  ****    0 ROOT
