@<TRIPOS>MOLECULE
n_hexylamine
   22    21     1     0     0
SMALL
No Charge or Current Charge


@<TRIPOS>ATOM
      1 C1          1.1230   -0.0650   -0.2430 c3        1 MOL     -0.089900
      2 C2          1.6710    1.3410   -0.4290 c3        1 MOL     -0.077800
      3 C3          0.9810    2.0630   -1.5870 c3        1 MOL     -0.077400
      4 C4          1.5590    3.4660   -1.7890 c3        1 MOL     -0.074300
      5 C5          0.8550    4.2620   -2.8920 c3        1 MOL     -0.119900
      6 C6          1.4520    5.6520   -3.1080 c3        1 MOL      0.151700
      7 N1          0.7360    6.3470   -4.1730 n3        1 MOL     -0.904900
      8 H1          1.6290   -0.5610    0.5900 hc        1 MOL      0.032000
      9 H2          0.0510   -0.0420   -0.0250 hc        1 MOL      0.032000
     10 H3          1.2780   -0.6680   -1.1430 hc        1 MOL      0.032000
     11 H4          1.5320    1.9070    0.4990 hc        1 MOL      0.037400
     12 H5          2.7500    1.2850   -0.6160 hc        1 MOL      0.037400
     13 H6         -0.0950    2.1350   -1.3860 hc        1 MOL      0.039200
     14 H7          1.1020    1.4710   -2.5010 hc        1 MOL      0.039200
     15 H8          2.6310    3.3960   -2.0130 hc        1 MOL      0.038600
     16 H9          1.4690    4.0280   -0.8510 hc        1 MOL      0.038600
     17 H10        -0.2030    4.3630   -2.6140 hc        1 MOL      0.039100
     18 H11         0.8810    3.6920   -3.8290 hc        1 MOL      0.039100
     19 H12         1.3810    6.2410   -2.1880 h1        1 MOL      0.050300
     20 H13         2.5090    5.5830   -3.3820 h1        1 MOL      0.050300
     21 H14        -0.2350    6.0450   -4.1720 hn        1 MOL      0.343600
     22 H15         1.1250    6.0670   -5.0710 hn        1 MOL      0.343600
@<TRIPOS>BOND
     1    1    2 1   
     2    2    3 1   
     3    3    4 1   
     4    4    5 1   
     5    5    6 1   
     6    6    7 1   
     7    1    8 1   
     8    1    9 1   
     9    1   10 1   
    10    2   11 1   
    11    2   12 1   
    12    3   13 1   
    13    3   14 1   
    14    4   15 1   
    15    4   16 1   
    16    5   17 1   
    17    5   18 1   
    18    6   19 1   
    19    6   20 1   
    20    7   21 1   
    21    7   22 1   
@<TRIPOS>SUBSTRUCTURE
     1 R0_         1 TEMP              0 ****  ****    0 ROOT
