@<TRIPOS>MOLECULE
p_dibromobenzene
   12    12     1     0     0
SMALL
No Charge or Current Charge


@<TRIPOS>ATOM
      1 C1          0.8180   -0.4390    0.5640 ca        1 MOL     -0.104200
      2 C2          0.7990   -0.4060    1.9590 ca        1 MOL     -0.104200
      3 C3          2.9370   -1.5970    0.6200 ca        1 MOL     -0.104200
      4 C4          2.9180   -1.5650    2.0140 ca        1 MOL     -0.104200
      5 C5          1.8870   -1.0340   -0.1050 ca        1 MOL     -0.016900
      6 C6          1.8500   -0.9690    2.6840 ca        1 MOL     -0.016900
      7 Br1         1.9120   -1.0780   -1.9940 br        1 MOL     -0.079100
      8 Br2         1.8250   -0.9250    4.5730 br        1 MOL     -0.079100
      9 H1         -0.0080    0.0040    0.0140 ha        1 MOL      0.152200
     10 H2         -0.0410    0.0620    2.4660 ha        1 MOL      0.152200
     11 H3          3.7770   -2.0650    0.1130 ha        1 MOL      0.152200
     12 H4          3.7440   -2.0080    2.5640 ha        1 MOL      0.152200
@<TRIPOS>BOND
     1    1    2 ar  
     2    1    5 ar  
     3    2    6 ar  
     4    3    4 ar  
     5    3    5 ar  
     6    4    6 ar  
     7    5    7 1   
     8    6    8 1   
     9    1    9 1   
    10    2   10 1   
    11    3   11 1   
    12    4   12 1   
@<TRIPOS>SUBSTRUCTURE
     1 R0_         1 TEMP              0 ****  ****    0 ROOT
