@<TRIPOS>MOLECULE
1_iodoheptane
   23    22     1     0     0
SMALL
No Charge or Current Charge


@<TRIPOS>ATOM
      1 C1         -0.6510   -1.2100   -2.1830 c3        1 MOL     -0.089900
      2 C2          0.5390   -0.2940   -1.9440 c3        1 MOL     -0.077800
      3 C3          0.3570    1.1090   -2.5260 c3        1 MOL     -0.077000
      4 C4          1.5850    2.0050   -2.3460 c3        1 MOL     -0.076800
      5 C5          1.3380    3.4040   -2.9170 c3        1 MOL     -0.078900
      6 C6          2.5750    4.2920   -2.7680 c3        1 MOL     -0.073700
      7 C7          2.3110    5.6990   -3.3030 c3        1 MOL      0.072100
      8 I1          4.0590    6.9170   -3.1170 i         1 MOL     -0.256400
      9 H1         -1.5370   -0.8670   -1.6410 hc        1 MOL      0.032100
     10 H2         -0.8960   -1.2670   -3.2480 hc        1 MOL      0.032100
     11 H3         -0.4210   -2.2220   -1.8340 hc        1 MOL      0.032100
     12 H4          1.4250   -0.7480   -2.4040 hc        1 MOL      0.037600
     13 H5          0.7390   -0.2290   -0.8680 hc        1 MOL      0.037600
     14 H6         -0.5190    1.5850   -2.0700 hc        1 MOL      0.039100
     15 H7          0.1400    1.0100   -3.5970 hc        1 MOL      0.039100
     16 H8          2.4480    1.5510   -2.8470 hc        1 MOL      0.039900
     17 H9          1.8340    2.0910   -1.2820 hc        1 MOL      0.039900
     18 H10         0.4890    3.8660   -2.3990 hc        1 MOL      0.042000
     19 H11         1.0680    3.3260   -3.9770 hc        1 MOL      0.042000
     20 H12         3.4170    3.8370   -3.3060 hc        1 MOL      0.051900
     21 H13         2.8630    4.3410   -1.7100 hc        1 MOL      0.051900
     22 H14         1.4860    6.1620   -2.7510 h1        1 MOL      0.070600
     23 H15         2.0140    5.6510   -4.3560 h1        1 MOL      0.070600
@<TRIPOS>BOND
     1    1    2 1   
     2    2    3 1   
     3    3    4 1   
     4    4    5 1   
     5    5    6 1   
     6    6    7 1   
     7    7    8 1   
     8    1    9 1   
     9    1   10 1   
    10    1   11 1   
    11    2   12 1   
    12    2   13 1   
    13    3   14 1   
    14    3   15 1   
    15    4   16 1   
    16    4   17 1   
    17    5   18 1   
    18    5   19 1   
    19    6   20 1   
    20    6   21 1   
    21    7   22 1   
    22    7   23 1   
@<TRIPOS>SUBSTRUCTURE
     1 R0_         1 TEMP              0 ****  ****    0 ROOT
