@<TRIPOS>MOLECULE
2_methylpropan_2_ol
   15    14     1     0     0
SMALL
No Charge or Current Charge


@<TRIPOS>ATOM
      1 C1         -0.4650   -0.0650    0.9890 c3        1 MOL     -0.106200
      2 C2          1.6270    0.6910    2.1570 c3        1 MOL     -0.106200
      3 C3          1.2040   -1.7600    1.8120 c3        1 MOL     -0.106200
      4 C4          0.5610   -0.3990    2.0720 c3        1 MOL      0.146700
      5 O1         -0.1080   -0.4450    3.3330 oh        1 MOL     -0.601100
      6 H1         -0.9610    0.8890    1.2040 hc        1 MOL      0.041800
      7 H2          0.0000    0.0000    0.0000 hc        1 MOL      0.041800
      8 H3         -1.2550   -0.8230    0.9520 hc        1 MOL      0.041800
      9 H4          2.3380    0.4800    2.9640 hc        1 MOL      0.041800
     10 H5          1.1750    1.6620    2.3900 hc        1 MOL      0.041800
     11 H6          2.1850    0.7840    1.2190 hc        1 MOL      0.041800
     12 H7          0.4460   -2.5520    1.7870 hc        1 MOL      0.041800
     13 H8          1.7490   -1.7740    0.8630 hc        1 MOL      0.041800
     14 H9          1.8990   -2.0230    2.6170 hc        1 MOL      0.041800
     15 H10        -0.6580    0.3520    3.3800 ho        1 MOL      0.397000
@<TRIPOS>BOND
     1    1    4 1   
     2    2    4 1   
     3    3    4 1   
     4    4    5 1   
     5    1    6 1   
     6    1    7 1   
     7    1    8 1   
     8    2    9 1   
     9    2   10 1   
    10    2   11 1   
    11    3   12 1   
    12    3   13 1   
    13    3   14 1   
    14    5   15 1   
@<TRIPOS>SUBSTRUCTURE
     1 R0_         1 TEMP              0 ****  ****    0 ROOT
