@<TRIPOS>MOLECULE
propyne
    7     6     1     0     0
SMALL
No Charge or Current Charge


@<TRIPOS>ATOM
      1 C1         -0.5940    3.0240   -0.9300 c1        1 MOL     -0.163600
      2 C2         -0.6480    1.8280   -0.8450 c1        1 MOL     -0.133100
      3 C3         -0.7150    0.3700   -0.7410 c3        1 MOL     -0.026400
      4 H1         -0.5460    4.0850   -1.0060 ha        1 MOL      0.163100
      5 H2          0.0000    0.0000    0.0000 hc        1 MOL      0.053300
      6 H3         -1.7160    0.0470   -0.4380 hc        1 MOL      0.053300
      7 H4         -0.4820   -0.1000   -1.7010 hc        1 MOL      0.053300
@<TRIPOS>BOND
     1    1    2 3   
     2    2    3 1   
     3    1    4 1   
     4    3    5 1   
     5    3    6 1   
     6    3    7 1   
@<TRIPOS>SUBSTRUCTURE
     1 R0_         1 TEMP              0 ****  ****    0 ROOT
