@<TRIPOS>MOLECULE
CUP08015_AM1BCC_v1_0
   26    27     1     0     0
SMALL
No Charge or Current Charge


@<TRIPOS>ATOM
      1 C1         -0.5090   -2.0520    0.6870 ca        1 MOL     -0.122400
      2 C2          0.2920   -1.0160    0.2200 ca        1 MOL     -0.132500
      3 C3          2.9960   -5.2800   -0.3580 ca        1 MOL     -0.108900
      4 C4         -0.0370   -3.3650    0.6550 ca        1 MOL     -0.125600
      5 C5          1.5650   -1.2910   -0.2810 ca        1 MOL     -0.102700
      6 C6          1.7210   -4.9830    0.1280 ca        1 MOL     -0.125600
      7 C7          3.8130   -4.2600   -0.8300 ca        1 MOL     -0.140900
      8 C8          1.2420   -3.6610    0.1550 ca        1 MOL     -0.025500
      9 C9          2.0610   -2.6120   -0.3260 ca        1 MOL     -0.037500
     10 C10         3.3370   -2.9470   -0.8270 ca        1 MOL      0.133800
     11 C11         4.2490   -1.7960   -2.6430 c         1 MOL      0.734300
     12 C12         5.4640   -0.4810   -4.3200 c3        1 MOL      0.080100
     13 N1          5.1050   -0.7770   -2.9610 n         1 MOL     -0.533000
     14 O1          3.6460   -2.4750   -3.4630 o         1 MOL     -0.559700
     15 O2          4.2000   -1.9310   -1.2660 os        1 MOL     -0.374700
     16 H1         -1.5020   -1.8410    1.0760 ha        1 MOL      0.132400
     17 H2         -0.0730    0.0080    0.2420 ha        1 MOL      0.132700
     18 H3          3.3480   -6.3090   -0.3670 ha        1 MOL      0.137200
     19 H4         -0.6790   -4.1620    1.0250 ha        1 MOL      0.134300
     20 H5          2.1710   -0.4650   -0.6450 ha        1 MOL      0.141300
     21 H6          1.0970   -5.7980    0.4920 ha        1 MOL      0.134300
     22 H7          4.8060   -4.4850   -1.2070 ha        1 MOL      0.157600
     23 H8          6.2490   -1.1750   -4.6320 h1        1 MOL      0.049500
     24 H9          5.8380    0.5440   -4.3660 h1        1 MOL      0.049500
     25 H10         4.5980   -0.5940   -4.9780 h1        1 MOL      0.049500
     26 H11         5.6370   -0.3870   -2.1960 hn        1 MOL      0.322200
@<TRIPOS>BOND
     1    1    2 ar  
     2    1    4 ar  
     3    2    5 ar  
     4    3    6 ar  
     5    3    7 ar  
     6    4    8 ar  
     7    5    9 ar  
     8    6    8 ar  
     9    7   10 ar  
    10    8    9 ar  
    11    9   10 ar  
    12   10   15 1   
    13   11   13 1   
    14   11   14 2   
    15   11   15 1   
    16   12   13 1   
    17    1   16 1   
    18    2   17 1   
    19    3   18 1   
    20    4   19 1   
    21    5   20 1   
    22    6   21 1   
    23    7   22 1   
    24   12   23 1   
    25   12   24 1   
    26   12   25 1   
    27   13   26 1   
@<TRIPOS>SUBSTRUCTURE
     1 R0_         1 TEMP              0 ****  ****    0 ROOT
