@<TRIPOS>MOLECULE
phenyl_trifluoroethyl_ether
   19    19     1     0     0
SMALL
No Charge or Current Charge


@<TRIPOS>ATOM
      1 C1          1.8850   -1.0380   -0.1090 ca        1 MOL     -0.150700
      2 C2          0.8180   -0.4410    0.5630 ca        1 MOL     -0.101200
      3 C3          2.9350   -1.6040    0.6140 ca        1 MOL     -0.101200
      4 C4          0.8010   -0.4100    1.9570 ca        1 MOL     -0.161500
      5 C5          2.9180   -1.5730    2.0080 ca        1 MOL     -0.161500
      6 C6          1.8510   -0.9770    2.6800 ca        1 MOL      0.115100
      7 C7          0.5630   -0.9610    4.6910 c3        1 MOL      0.335500
      8 C8          0.7110   -1.6110    6.0470 c3        1 MOL      0.379900
      9 O1          1.8340   -0.9480    4.0400 os        1 MOL     -0.349100
     10 F1          0.1560    0.3240    4.8780 f         1 MOL     -0.221500
     11 F2         -0.4790   -1.5900    6.6950 f         1 MOL     -0.231600
     12 F3          1.5840   -0.8970    6.8020 f         1 MOL     -0.231600
     13 H1          1.8990   -1.0600   -1.1950 ha        1 MOL      0.136100
     14 H2         -0.0000   -0.0010   -0.0000 ha        1 MOL      0.136800
     15 H3          3.7660   -2.0680    0.0900 ha        1 MOL      0.136800
     16 H4         -0.0340    0.0550    2.4750 ha        1 MOL      0.147400
     17 H5          3.7390   -2.0170    2.5660 ha        1 MOL      0.147400
     18 H6         -0.1900   -1.4980    4.1040 h2        1 MOL      0.092800
     19 H7          1.0710   -2.6420    5.9840 h2        1 MOL      0.082100
@<TRIPOS>BOND
     1    1    2 ar  
     2    1    3 ar  
     3    2    4 ar  
     4    3    5 ar  
     5    4    6 ar  
     6    5    6 ar  
     7    6    9 1   
     8    7    8 1   
     9    7    9 1   
    10    7   10 1   
    11    8   11 1   
    12    8   12 1   
    13    1   13 1   
    14    2   14 1   
    15    3   15 1   
    16    4   16 1   
    17    5   17 1   
    18    7   18 1   
    19    8   19 1   
@<TRIPOS>SUBSTRUCTURE
     1 R0_         1 TEMP              0 ****  ****    0 ROOT
