@<TRIPOS>MOLECULE
isobutyl_formate
   17    16     1     0     0
SMALL
No Charge or Current Charge


@<TRIPOS>ATOM
      1 C1          2.9180    2.5360    2.0760 c         1 MOL      0.628400
      2 C2          0.9980   -0.3580   -0.2740 c3        1 MOL     -0.087900
      3 C3          1.1580    1.1800   -2.2510 c3        1 MOL     -0.087900
      4 C4          1.9990    1.9490   -0.0130 c3        1 MOL      0.135300
      5 C5          1.8180    0.7470   -0.9440 c3        1 MOL     -0.079300
      6 O1          2.5910    3.7100    1.9940 o         1 MOL     -0.534700
      7 O2          2.6930    1.5520    1.1620 os        1 MOL     -0.444800
      8 H1          3.4580    2.1070    2.9340 h5        1 MOL      0.074100
      9 H2          0.8770   -1.2130   -0.9480 hc        1 MOL      0.037400
     10 H3          0.0000   -0.0000    0.0000 hc        1 MOL      0.037400
     11 H4          1.4900   -0.7200    0.6340 hc        1 MOL      0.037400
     12 H5          1.0540    0.3300   -2.9340 hc        1 MOL      0.037400
     13 H6          1.7590    1.9430   -2.7570 hc        1 MOL      0.037400
     14 H7          0.1600    1.5970   -2.0740 hc        1 MOL      0.037400
     15 H8          2.5870    2.7310   -0.5050 h1        1 MOL      0.057100
     16 H9          1.0320    2.3720    0.2790 h1        1 MOL      0.057100
     17 H10         2.8080    0.3290   -1.1710 hc        1 MOL      0.058600
@<TRIPOS>BOND
     1    1    6 2   
     2    1    7 1   
     3    2    5 1   
     4    3    5 1   
     5    4    5 1   
     6    4    7 1   
     7    1    8 1   
     8    2    9 1   
     9    2   10 1   
    10    2   11 1   
    11    3   12 1   
    12    3   13 1   
    13    3   14 1   
    14    4   15 1   
    15    4   16 1   
    16    5   17 1   
@<TRIPOS>SUBSTRUCTURE
     1 R0_         1 TEMP              0 ****  ****    0 ROOT
