@<TRIPOS>MOLECULE
s10
   10     9     1     0     0
SMALL
bcc


@<TRIPOS>ATOM
      1 H1         -2.0230   -0.0050   -1.0160 ha        1 MOL       0.1117
      2 C2         -2.4780   -0.9360   -0.8080 c2        1 MOL      -0.2087
      3 H2         -3.4010   -1.1620   -1.3910 ha        1 MOL       0.1130
      4 C1         -2.0660   -1.7770    0.1600 ce        1 MOL      -0.1371
      5 H3         -2.6020   -2.7120    0.3010 ha        1 MOL       0.1211
      6 C4         -0.9020   -1.5620    0.9230 ce        1 MOL      -0.1371
      7 H4         -0.3490   -0.6430    0.7950 ha        1 MOL       0.1211
      8 C3         -0.4320   -2.4080    1.8900 c2        1 MOL      -0.2087
      9 H5          0.4320   -2.1920    2.4530 ha        1 MOL       0.1130
     10 H6         -0.9710   -3.3680    2.0660 ha        1 MOL       0.1117
@<TRIPOS>BOND
     1    1    2 1   
     2    2    3 1   
     3    2    4 2   
     4    4    5 1   
     5    4    6 1   
     6    6    7 1   
     7    6    8 2   
     8    8    9 1   
     9    8   10 1   
@<TRIPOS>SUBSTRUCTURE
     1 s10         1 TEMP              0 ****  ****    0 ROOT
