@<TRIPOS>MOLECULE
3_methoxyaniline
   18    18     1     0     0
SMALL
No Charge or Current Charge


@<TRIPOS>ATOM
      1 C1          0.8320   -0.3950    0.5750 ca        1 MOL     -0.061700
      2 C2          1.8990   -1.0140   -0.0770 ca        1 MOL     -0.227100
      3 C3          0.8350   -0.2830    1.9660 ca        1 MOL     -0.222800
      4 C4          2.9710   -1.4090    2.0520 ca        1 MOL     -0.247500
      5 C5          2.9680   -1.5200    0.6620 ca        1 MOL      0.177100
      6 C6          1.9040   -0.7900    2.7040 ca        1 MOL      0.160400
      7 C7          0.7850   -0.0360    4.6620 c3        1 MOL      0.118300
      8 N1          4.0480   -2.1450    0.0030 nh        1 MOL     -0.828700
      9 O1          1.9070   -0.6800    4.0610 os        1 MOL     -0.330400
     10 H1         -0.0000   -0.0010    0.0000 ha        1 MOL      0.130500
     11 H2          1.8870   -1.0960   -1.1610 ha        1 MOL      0.132100
     12 H3          0.0010    0.2000    2.4680 ha        1 MOL      0.142300
     13 H4          3.8020   -1.8020    2.6320 ha        1 MOL      0.142300
     14 H5         -0.0010   -0.7710    4.8490 h1        1 MOL      0.042500
     15 H6          0.4150    0.7490    3.9980 h1        1 MOL      0.042500
     16 H7          1.0970    0.4090    5.6100 h1        1 MOL      0.042500
     17 H8          3.8610   -2.7660   -0.7580 hn        1 MOL      0.393900
     18 H9          4.9720   -2.0310    0.3660 hn        1 MOL      0.393900
@<TRIPOS>BOND
     1    1    2 ar  
     2    1    3 ar  
     3    2    5 ar  
     4    3    6 ar  
     5    4    5 ar  
     6    4    6 ar  
     7    5    8 1   
     8    6    9 1   
     9    7    9 1   
    10    1   10 1   
    11    2   11 1   
    12    3   12 1   
    13    4   13 1   
    14    7   14 1   
    15    7   15 1   
    16    7   16 1   
    17    8   17 1   
    18    8   18 1   
@<TRIPOS>SUBSTRUCTURE
     1 R0_         1 TEMP              0 ****  ****    0 ROOT
