@<TRIPOS>MOLECULE
35_dimethylphenol
   19    19     1     0     0
SMALL
No Charge or Current Charge


@<TRIPOS>ATOM
      1 C1          1.8990   -1.0130   -0.0780 ca        1 MOL     -0.167200
      2 C2          0.8130   -0.3270    1.9680 ca        1 MOL     -0.191200
      3 C3          2.9470   -1.4560    2.0530 ca        1 MOL     -0.191200
      4 C4          0.8260   -0.4080    0.5750 ca        1 MOL     -0.028100
      5 C5          2.9600   -1.5370    0.6600 ca        1 MOL     -0.028100
      6 C6          1.8740   -0.8520    2.7070 ca        1 MOL      0.130300
      7 C7         -0.3080    0.1510   -0.2150 c3        1 MOL     -0.062800
      8 C8          4.1070   -2.1840   -0.0390 c3        1 MOL     -0.062800
      9 O1          1.8610   -0.7730    4.0660 oh        1 MOL     -0.501100
     10 H1          1.9100   -1.0760   -1.1640 ha        1 MOL      0.132800
     11 H2         -0.0230    0.1430    2.4800 ha        1 MOL      0.140800
     12 H3          3.7720   -1.8640    2.6320 ha        1 MOL      0.140800
     13 H4         -1.1960   -0.4860   -0.1140 hc        1 MOL      0.044900
     14 H5         -0.5670    1.1640    0.1200 hc        1 MOL      0.044900
     15 H6         -0.0530    0.2250   -1.2810 hc        1 MOL      0.044900
     16 H7          4.8780   -2.4800    0.6830 hc        1 MOL      0.044900
     17 H8          3.7860   -3.0770   -0.5900 hc        1 MOL      0.044900
     18 H9          4.5610   -1.5050   -0.7730 hc        1 MOL      0.044900
     19 H10         1.1900   -0.1190    4.3360 ho        1 MOL      0.418300
@<TRIPOS>BOND
     1    1    4 ar  
     2    1    5 ar  
     3    2    4 ar  
     4    2    6 ar  
     5    3    5 ar  
     6    3    6 ar  
     7    4    7 1   
     8    5    8 1   
     9    6    9 1   
    10    1   10 1   
    11    2   11 1   
    12    3   12 1   
    13    7   13 1   
    14    7   14 1   
    15    7   15 1   
    16    8   16 1   
    17    8   17 1   
    18    8   18 1   
    19    9   19 1   
@<TRIPOS>SUBSTRUCTURE
     1 R0_         1 TEMP              0 ****  ****    0 ROOT
