@<TRIPOS>MOLECULE
diethyl_succinate
   26    25     1     0     0
SMALL
No Charge or Current Charge


@<TRIPOS>ATOM
      1 C1         -1.9610   -0.7900    1.6260 c         1 MOL      0.632600
      2 C2         -4.2180   -0.8780    4.7840 c         1 MOL      0.632600
      3 C3         -1.1830    0.7930   -1.5830 c3        1 MOL     -0.111900
      4 C4         -4.8810   -2.3180    8.0860 c3        1 MOL     -0.111900
      5 C5         -3.1100   -0.4430    2.5490 c3        1 MOL     -0.125300
      6 C6         -3.0930   -1.2530    3.8440 c3        1 MOL     -0.125300
      7 C7         -0.9880   -0.1850   -0.4440 c3        1 MOL      0.141000
      8 C8         -5.1280   -1.4050    6.9040 c3        1 MOL      0.141000
      9 O1         -1.1300   -1.6650    1.8280 o         1 MOL     -0.541600
     10 O2         -5.0770   -0.0360    4.5590 o         1 MOL     -0.541600
     11 O3         -2.0120    0.0280    0.5330 os        1 MOL     -0.443900
     12 O4         -4.1200   -1.6380    5.9150 os        1 MOL     -0.443900
     13 H1         -0.4140    0.6570   -2.3490 hc        1 MOL      0.048000
     14 H2         -2.1670    0.6580   -2.0430 hc        1 MOL      0.048000
     15 H3         -1.1400    1.8240   -1.2180 hc        1 MOL      0.048000
     16 H4         -5.6350   -2.1640    8.8630 hc        1 MOL      0.048000
     17 H5         -4.9040   -3.3680    7.7730 hc        1 MOL      0.048000
     18 H6         -3.8900   -2.1350    8.5140 hc        1 MOL      0.048000
     19 H7         -4.0510   -0.5860    2.0080 hc        1 MOL      0.094700
     20 H8         -3.0070    0.6180    2.8050 hc        1 MOL      0.094700
     21 H9         -2.1530   -1.0460    4.3680 hc        1 MOL      0.094700
     22 H10        -3.1520   -2.3270    3.6380 hc        1 MOL      0.094700
     23 H11        -0.0130   -0.0330    0.0290 h1        1 MOL      0.057900
     24 H12        -1.0540   -1.2150   -0.8060 h1        1 MOL      0.057900
     25 H13        -5.0820   -0.3560    7.2140 h1        1 MOL      0.057900
     26 H14        -6.1090   -1.6050    6.4630 h1        1 MOL      0.057900
@<TRIPOS>BOND
     1    1    5 1   
     2    1    9 2   
     3    1   11 1   
     4    2    6 1   
     5    2   10 2   
     6    2   12 1   
     7    3    7 1   
     8    4    8 1   
     9    5    6 1   
    10    7   11 1   
    11    8   12 1   
    12    3   13 1   
    13    3   14 1   
    14    3   15 1   
    15    4   16 1   
    16    4   17 1   
    17    4   18 1   
    18    5   19 1   
    19    5   20 1   
    20    6   21 1   
    21    6   22 1   
    22    7   23 1   
    23    7   24 1   
    24    8   25 1   
    25    8   26 1   
@<TRIPOS>SUBSTRUCTURE
     1 R0_         1 TEMP              0 ****  ****    0 ROOT
