@<TRIPOS>MOLECULE
1,2,4-trichlorodibenzo-p-dioxin
   22    24     1     0     0
SMALL
No Charge or Current Charge


@<TRIPOS>ATOM
      1 C1         -1.8580    0.7400    0.8000 ca        1 MOL     -0.124100
      2 C2         -1.0040   -0.2570    0.3260 ca        1 MOL     -0.124400
      3 C3         -3.1490    0.4150    1.2200 ca        1 MOL     -0.110200
      4 C4         -1.4370   -1.5820    0.2690 ca        1 MOL     -0.109600
      5 C5         -6.9620   -4.1460    1.8750 ca        1 MOL     -0.116800
      6 C6         -3.5800   -0.9100    1.1630 ca        1 MOL      0.059200
      7 C7         -2.7270   -1.9050    0.6890 ca        1 MOL      0.058300
      8 C8         -5.2390   -2.4980    1.5120 ca        1 MOL      0.078300
      9 C9         -4.3860   -3.4940    1.0380 ca        1 MOL      0.085700
     10 C10        -6.5290   -2.8210    1.9320 ca        1 MOL      0.029200
     11 C11        -6.1070   -5.1430    1.4010 ca        1 MOL      0.021500
     12 C12        -4.8170   -4.8180    0.9820 ca        1 MOL      0.022000
     13 O1         -4.8560   -1.1830    1.5850 os        1 MOL     -0.207800
     14 O2         -3.1090   -3.2200    0.6160 os        1 MOL     -0.208100
     15 Cl1        -7.6140   -1.6170    2.5250 cl        1 MOL     -0.045000
     16 Cl2        -6.7140   -6.7630    1.3600 cl        1 MOL     -0.053000
     17 Cl3        -3.7390   -6.0420    0.3890 cl        1 MOL     -0.029700
     18 H1         -1.5180    1.7700    0.8420 ha        1 MOL      0.142500
     19 H2          0.0000   -0.0000   -0.0000 ha        1 MOL      0.142900
     20 H3         -3.8080    1.1960    1.5880 ha        1 MOL      0.159100
     21 H4         -0.7660   -2.3520   -0.1010 ha        1 MOL      0.159200
     22 H5         -7.9680   -4.4020    2.2030 ha        1 MOL      0.170700
@<TRIPOS>BOND
     1    1    2 ar  
     2    1    3 ar  
     3    2    4 ar  
     4    3    6 ar  
     5    4    7 ar  
     6    5   10 ar  
     7    5   11 ar  
     8    6    7 ar  
     9    6   13 ar  
    10    7   14 ar  
    11    8    9 ar  
    12    8   10 ar  
    13    8   13 ar  
    14    9   12 ar  
    15    9   14 ar  
    16   10   15 1   
    17   11   12 ar  
    18   11   16 1   
    19   12   17 1   
    20    1   18 1   
    21    2   19 1   
    22    3   20 1   
    23    4   21 1   
    24    5   22 1   
@<TRIPOS>SUBSTRUCTURE
     1 MOL         1 TEMP              0 ****  ****    0 ROOT
