@<TRIPOS>MOLECULE
cyclopentanol
   16    16     1     0     0
SMALL
No Charge or Current Charge


@<TRIPOS>ATOM
      1 C1         -1.1980   -0.6290   -1.7140 c3        1 MOL     -0.076600
      2 C2         -0.3740    0.3940   -0.9500 c3        1 MOL     -0.076600
      3 C3         -2.0360    0.2320   -2.6470 c3        1 MOL     -0.096600
      4 C4         -1.3060    1.5890   -0.7510 c3        1 MOL     -0.096600
      5 C5         -2.4250    1.4300   -1.7860 c3        1 MOL      0.134500
      6 O1         -3.6620    1.1760   -1.1270 oh        1 MOL     -0.596000
      7 H1         -0.5740   -1.3450   -2.2550 hc        1 MOL      0.042600
      8 H2         -1.8450   -1.1850   -1.0260 hc        1 MOL      0.042600
      9 H3          0.0010    0.0000   -0.0000 hc        1 MOL      0.042600
     10 H4          0.4930    0.6980   -1.5500 hc        1 MOL      0.042600
     11 H5         -1.4190    0.5620   -3.4910 hc        1 MOL      0.050100
     12 H6         -2.8990   -0.3180   -3.0340 hc        1 MOL      0.050100
     13 H7         -1.7030    1.6040    0.2700 hc        1 MOL      0.050100
     14 H8         -0.7520    2.5200   -0.9090 hc        1 MOL      0.050100
     15 H9         -2.5550    2.3330   -2.3880 h1        1 MOL      0.038100
     16 H10        -4.0600    2.0410   -0.9380 ho        1 MOL      0.399100
@<TRIPOS>BOND
     1    1    2 1   
     2    1    3 1   
     3    2    4 1   
     4    3    5 1   
     5    4    5 1   
     6    5    6 1   
     7    1    7 1   
     8    1    8 1   
     9    2    9 1   
    10    2   10 1   
    11    3   11 1   
    12    3   12 1   
    13    4   13 1   
    14    4   14 1   
    15    5   15 1   
    16    6   16 1   
@<TRIPOS>SUBSTRUCTURE
     1 R0_         1 TEMP              0 ****  ****    0 ROOT
