@<TRIPOS>MOLECULE
2_chloropropane
   11    10     1     0     0
SMALL
No Charge or Current Charge


@<TRIPOS>ATOM
      1 C1          0.8650   -0.5430    0.3970 c3        1 MOL     -0.101400
      2 C2          1.1980    1.1740    2.2080 c3        1 MOL     -0.101400
      3 C3          1.0060   -0.3020    1.8930 c3        1 MOL      0.063200
      4 Cl1         2.3970   -1.2330    2.5190 cl        1 MOL     -0.213300
      5 H1          0.7150   -1.6070    0.1820 hc        1 MOL      0.047400
      6 H2          0.0000    0.0000    0.0000 hc        1 MOL      0.047400
      7 H3          1.7520   -0.2070   -0.1510 hc        1 MOL      0.047400
      8 H4          1.2870    1.3370    3.2880 hc        1 MOL      0.047400
      9 H5          0.3410    1.7570    1.8550 hc        1 MOL      0.047400
     10 H6          2.0970    1.5750    1.7290 hc        1 MOL      0.047400
     11 H7          0.1160   -0.6750    2.4100 h1        1 MOL      0.068600
@<TRIPOS>BOND
     1    1    3 1   
     2    2    3 1   
     3    3    4 1   
     4    1    5 1   
     5    1    6 1   
     6    1    7 1   
     7    2    8 1   
     8    2    9 1   
     9    2   10 1   
    10    3   11 1   
@<TRIPOS>SUBSTRUCTURE
     1 R0_         1 TEMP              0 ****  ****    0 ROOT
