@<TRIPOS>MOLECULE
naphthalene
   18    19     1     0     0
SMALL
No Charge or Current Charge


@<TRIPOS>ATOM
      1 C1         -0.5590   -2.0540    0.3110 ca        1 MOL     -0.127700
      2 C2          0.3410   -1.0310    0.0250 ca        1 MOL     -0.127700
      3 C3          3.0180   -5.3220   -0.1350 ca        1 MOL     -0.127700
      4 C4          3.9170   -4.2990   -0.4200 ca        1 MOL     -0.127700
      5 C5         -0.1220   -3.3790    0.3440 ca        1 MOL     -0.117500
      6 C6          1.6800   -1.3290   -0.2290 ca        1 MOL     -0.117500
      7 C7          1.6790   -5.0240    0.1190 ca        1 MOL     -0.117500
      8 C8          3.4810   -2.9740   -0.4530 ca        1 MOL     -0.117500
      9 C9          1.2220   -3.6970    0.0910 ca        1 MOL     -0.036900
     10 C10         2.1360   -2.6560   -0.2000 ca        1 MOL     -0.036900
     11 H1         -1.6010   -1.8220    0.5090 ha        1 MOL      0.131700
     12 H2         -0.0010   -0.0000   -0.0010 ha        1 MOL      0.131700
     13 H3          3.3580   -6.3540   -0.1090 ha        1 MOL      0.131700
     14 H4          4.9600   -4.5320   -0.6170 ha        1 MOL      0.131700
     15 H5         -0.8430   -4.1620    0.5690 ha        1 MOL      0.132000
     16 H6          2.3650   -0.5130   -0.4500 ha        1 MOL      0.132000
     17 H7          0.9940   -5.8400    0.3420 ha        1 MOL      0.132000
     18 H8          4.2010   -2.1910   -0.6780 ha        1 MOL      0.132000
@<TRIPOS>BOND
     1    1    2 ar  
     2    1    5 ar  
     3    2    6 ar  
     4    3    4 ar  
     5    3    7 ar  
     6    4    8 ar  
     7    5    9 ar  
     8    6   10 ar  
     9    7    9 ar  
    10    8   10 ar  
    11    9   10 ar  
    12    1   11 1   
    13    2   12 1   
    14    3   13 1   
    15    4   14 1   
    16    5   15 1   
    17    6   16 1   
    18    7   17 1   
    19    8   18 1   
@<TRIPOS>SUBSTRUCTURE
     1 R0_         1 TEMP              0 ****  ****    0 ROOT
