@<TRIPOS>MOLECULE
5-flurouracil
   12    12     1     0     0
SMALL
No Charge or Current Charge


@<TRIPOS>ATOM
      1 C1         -1.0700    0.3560    1.7120 cc        1 MOL      0.001000
      2 C2         -1.9310   -0.1090    2.6140 cd        1 MOL     -0.031500
      3 C3         -2.4750   -1.4770    2.5050 c         1 MOL      0.703900
      4 C4         -1.0990   -1.7120    0.4430 c         1 MOL      0.803700
      5 N1         -0.6590   -0.4100    0.6550 n         1 MOL     -0.462400
      6 N2         -2.0040   -2.1830    1.4030 n         1 MOL     -0.581600
      7 O1         -3.2680   -1.9180    3.3300 o         1 MOL     -0.575900
      8 O2         -0.7240   -2.3970   -0.5090 o         1 MOL     -0.626700
      9 F1         -2.3500    0.6240    3.6620 f         1 MOL     -0.131500
     10 H1         -0.6540    1.3540    1.7650 h4        1 MOL      0.179300
     11 H2         -0.0010   -0.0090   -0.0060 hn        1 MOL      0.361300
     12 H3         -2.3490   -3.1310    1.2820 hn        1 MOL      0.360300
@<TRIPOS>BOND
     1    1    2 2   
     2    1    5 1   
     3    2    3 1   
     4    2    9 1   
     5    3    6 1   
     6    3    7 2   
     7    4    5 1   
     8    4    6 1   
     9    4    8 2   
    10    1   10 1   
    11    5   11 1   
    12    6   12 1   
@<TRIPOS>SUBSTRUCTURE
     1 MOL         1 TEMP              0 ****  ****    0 ROOT
