@<TRIPOS>MOLECULE
ac3glyc.xyz
   29    28     1     0     0
SMALL
No Charge or Current Charge


@<TRIPOS>ATOM
      1 C1          1.5000    0.0000    0.0000 c         1 MOL      0.650200
      2 C2          6.6410   -3.2580    3.1620 c         1 MOL      0.645100
      3 C3          3.0300    0.0280    2.9670 c         1 MOL      0.656500
      4 C4          0.0000    0.0000    0.0000 c3        1 MOL     -0.155000
      5 C5          6.8260   -3.4910    4.6340 c3        1 MOL     -0.154800
      6 C6          3.4050    1.3590    3.5470 c3        1 MOL     -0.154000
      7 C7          3.3800   -1.4580    0.0810 c3        1 MOL      0.123600
      8 C8          5.1860   -2.3750    1.5470 c3        1 MOL      0.142600
      9 C9          3.8360   -1.6880    1.5170 c3        1 MOL      0.122000
     10 O1          2.1870    0.9730    0.0000 o         1 MOL     -0.532900
     11 O2          7.4220   -3.5560    2.3150 o         1 MOL     -0.528800
     12 O3          1.9990   -0.5380    3.1580 o         1 MOL     -0.537300
     13 O4          1.9820   -1.2390    0.0110 os        1 MOL     -0.427900
     14 O5          5.4810   -2.6680    2.9010 os        1 MOL     -0.426200
     15 O6          3.9950   -0.4460    2.1870 os        1 MOL     -0.426300
     16 H1         -0.3750   -0.6570   -0.7750 hc        1 MOL      0.067400
     17 H2         -0.3610    1.0070   -0.1490 hc        1 MOL      0.071700
     18 H3         -0.3430   -0.3770    0.9570 hc        1 MOL      0.079900
     19 H4          6.8030   -2.5420    5.1570 hc        1 MOL      0.069500
     20 H5          6.0120   -4.0980    5.0130 hc        1 MOL      0.069500
     21 H6          7.7710   -3.9850    4.8040 hc        1 MOL      0.073500
     22 H7          3.4580    2.0830    2.7420 hc        1 MOL      0.078500
     23 H8          2.6580    1.6630    4.2660 hc        1 MOL      0.071000
     24 H9          4.3800    1.3020    4.0140 hc        1 MOL      0.067500
     25 H10         3.5520   -2.3520   -0.5030 h1        1 MOL      0.072700
     26 H11         3.9110   -0.6270   -0.3600 h1        1 MOL      0.073700
     27 H12         5.1550   -3.2970    0.9800 h1        1 MOL      0.055100
     28 H13         5.9590   -1.7400    1.1350 h1        1 MOL      0.063300
     29 H14         3.1030   -2.2850    2.0400 h1        1 MOL      0.090100
@<TRIPOS>BOND
     1    1    4 1   
     2    1   10 2   
     3    1   13 1   
     4    2    5 1   
     5    2   11 2   
     6    2   14 1   
     7    3    6 1   
     8    3   12 2   
     9    3   15 1   
    10    7    9 1   
    11    7   13 1   
    12    8    9 1   
    13    8   14 1   
    14    9   15 1   
    15    4   16 1   
    16    4   17 1   
    17    4   18 1   
    18    5   19 1   
    19    5   20 1   
    20    5   21 1   
    21    6   22 1   
    22    6   23 1   
    23    6   24 1   
    24    7   25 1   
    25    7   26 1   
    26    8   27 1   
    27    8   28 1   
    28    9   29 1   
@<TRIPOS>SUBSTRUCTURE
     1 MOL         1 TEMP              0 ****  ****    0 ROOT
