@<TRIPOS>MOLECULE
1,3,5-trichloro-2-phenyl-benzene
   22    23     1     0     0
SMALL
No Charge or Current Charge


@<TRIPOS>ATOM
      1 C1          1.8850   -1.0360   -0.1120 ca        1 MOL     -0.119500
      2 C2          0.8070   -0.4630    0.5610 ca        1 MOL     -0.132000
      3 C3          2.9210   -1.6310    0.6080 ca        1 MOL     -0.131600
      4 C4          0.7640   -0.4840    1.9550 ca        1 MOL     -0.099900
      5 C5          2.8780   -1.6520    2.0020 ca        1 MOL     -0.099600
      6 C6          1.1060   -2.1890    6.1780 ca        1 MOL     -0.126400
      7 C7          2.2710   -0.0740    6.2470 ca        1 MOL     -0.126400
      8 C8          1.8000   -1.0790    2.6760 cp        1 MOL     -0.054600
      9 C9          1.7550   -1.1010    4.1220 cp        1 MOL     -0.025200
     10 C10         1.6660   -1.1420    6.9100 ca        1 MOL      0.031300
     11 C11         1.1500   -2.1690    4.7840 ca        1 MOL      0.041700
     12 C12         2.3150   -0.0530    4.8530 ca        1 MOL      0.041000
     13 Cl1         1.6110   -1.1680    8.6300 cl        1 MOL     -0.075400
     14 Cl2         0.4360   -3.4980    3.9360 cl        1 MOL     -0.066600
     15 Cl3         3.0770    1.3020    4.0910 cl        1 MOL     -0.066400
     16 H1          1.9170   -1.0210   -1.1980 ha        1 MOL      0.132000
     17 H2         -0.0010   -0.0020    0.0000 ha        1 MOL      0.134300
     18 H3          3.7600   -2.0790    0.0840 ha        1 MOL      0.134900
     19 H4         -0.0840   -0.0330    2.4660 ha        1 MOL      0.139000
     20 H5          3.6930   -2.1200    2.5500 ha        1 MOL      0.138700
     21 H6          0.6350   -3.0210    6.6980 ha        1 MOL      0.165300
     22 H7          2.7050    0.7420    6.8200 ha        1 MOL      0.165400
@<TRIPOS>BOND
     1    1    2 ar  
     2    1    3 ar  
     3    2    4 ar  
     4    3    5 ar  
     5    4    8 ar  
     6    5    8 ar  
     7    6   10 ar  
     8    6   11 ar  
     9    7   10 ar  
    10    7   12 ar  
    11    8    9 1   
    12    9   11 ar  
    13    9   12 ar  
    14   10   13 1   
    15   11   14 1   
    16   12   15 1   
    17    1   16 1   
    18    2   17 1   
    19    3   18 1   
    20    4   19 1   
    21    5   20 1   
    22    6   21 1   
    23    7   22 1   
@<TRIPOS>SUBSTRUCTURE
     1 MOL         1 TEMP              0 ****  ****    0 ROOT
