@<TRIPOS>MOLECULE
diflunisal
   26    27     1     0     0
SMALL
No Charge or Current Charge


@<TRIPOS>ATOM
      1 C1          1.8850   -1.0360   -0.1120 ca        1 MOL     -0.038900
      2 C2          4.8330   -1.4360   -0.9250 ca        1 MOL     -0.072800
      3 C3          0.8070   -0.4630    0.5610 ca        1 MOL     -0.237200
      4 C4          5.9130   -2.0030   -1.6010 ca        1 MOL     -0.182100
      5 C5          2.8780   -1.6520    2.0020 ca        1 MOL     -0.014400
      6 C6          5.4070   -4.1480   -0.6090 ca        1 MOL     -0.208000
      7 C7          2.9210   -1.6310    0.6080 cp        1 MOL     -0.097900
      8 C8          4.0400   -2.2240   -0.0910 cp        1 MOL     -0.084500
      9 C9          1.8000   -1.0790    2.6760 ca        1 MOL     -0.166900
     10 C10         0.7640   -0.4840    1.9550 ca        1 MOL      0.192800
     11 C11         6.2000   -3.3590   -1.4430 ca        1 MOL      0.156400
     12 C12         4.3270   -3.5800    0.0670 ca        1 MOL      0.166100
     13 C13         1.7750   -1.1100    4.1310 c         1 MOL      0.658300
     14 O1          1.2420   -0.2640    4.8550 o         1 MOL     -0.530200
     15 O2         -0.2980    0.0810    2.5950 oh        1 MOL     -0.458000
     16 O3          2.4150   -2.1980    4.6380 oh        1 MOL     -0.616500
     17 F1          7.2370   -3.9050   -2.0930 f         1 MOL     -0.132300
     18 F2          3.5750   -4.3510    0.8660 f         1 MOL     -0.128700
     19 H1          1.9040   -1.0120   -1.1990 ha        1 MOL      0.142800
     20 H2          4.6220   -0.3780   -1.0590 ha        1 MOL      0.147800
     21 H3          0.0030   -0.0010   -0.0060 ha        1 MOL      0.142900
     22 H4          6.5310   -1.3910   -2.2510 ha        1 MOL      0.155200
     23 H5          3.6850   -2.1150    2.5670 ha        1 MOL      0.167300
     24 H6          5.6310   -5.2030   -0.4860 ha        1 MOL      0.168300
     25 H7         -0.9220    0.4470    1.9480 ho        1 MOL      0.424700
     26 H8          2.4030   -2.2290    5.6180 ho        1 MOL      0.446000
@<TRIPOS>BOND
     1    1    3 ar  
     2    1    7 ar  
     3    2    4 ar  
     4    2    8 ar  
     5    3   10 ar  
     6    4   11 ar  
     7    5    7 ar  
     8    5    9 ar  
     9    6   11 ar  
    10    6   12 ar  
    11    7    8 1   
    12    8   12 ar  
    13    9   10 ar  
    14    9   13 1   
    15   10   15 1   
    16   11   17 1   
    17   12   18 1   
    18   13   14 2   
    19   13   16 1   
    20    1   19 1   
    21    2   20 1   
    22    3   21 1   
    23    4   22 1   
    24    5   23 1   
    25    6   24 1   
    26   15   25 1   
    27   16   26 1   
@<TRIPOS>SUBSTRUCTURE
     1 DIF         1 TEMP              0 ****  ****    0 ROOT
