@<TRIPOS>MOLECULE
1,2,4,5-tetrachloro-3-(3,4-dichlorophenyl)benzene
   22    23     1     0     0
SMALL
No Charge or Current Charge


@<TRIPOS>ATOM
      1 C1          1.8850   -1.0360   -0.1120 ca        1 MOL     -0.091200
      2 C2          0.8070   -0.4630    0.5610 ca        1 MOL     -0.120400
      3 C3          2.8780   -1.6520    2.0020 ca        1 MOL     -0.088100
      4 C4          6.1970   -3.3700   -1.4390 ca        1 MOL     -0.104900
      5 C5          2.9210   -1.6310    0.6080 cp        1 MOL     -0.046100
      6 C6          4.0400   -2.2250   -0.0910 cp        1 MOL     -0.020000
      7 C7          0.7640   -0.4840    1.9550 ca        1 MOL      0.026900
      8 C8          1.8000   -1.0790    2.6760 ca        1 MOL      0.015400
      9 C9          6.2400   -2.0260   -1.0680 ca        1 MOL      0.019200
     10 C10         5.0750   -4.1410   -1.1360 ca        1 MOL      0.018900
     11 C11         5.1620   -1.4540   -0.3940 ca        1 MOL      0.033500
     12 C12         3.9960   -3.5690   -0.4620 ca        1 MOL      0.033300
     13 Cl1        -0.5980    0.2460    2.7310 cl        1 MOL     -0.064500
     14 Cl2         1.8050   -1.1320    4.4040 cl        1 MOL     -0.063200
     15 Cl3         7.6660   -1.1340   -1.4780 cl        1 MOL     -0.050600
     16 Cl4         5.0940   -5.8000   -1.6290 cl        1 MOL     -0.049900
     17 Cl5         5.2210    0.2240    0.0680 cl        1 MOL     -0.041700
     18 Cl6         2.5970   -4.5350   -0.0870 cl        1 MOL     -0.041600
     19 H1          1.9030   -1.0140   -1.2000 ha        1 MOL      0.150600
     20 H2          0.0080   -0.0050   -0.0170 ha        1 MOL      0.154500
     21 H3          3.6870   -2.1180    2.5630 ha        1 MOL      0.159200
     22 H4          7.0390   -3.8170   -1.9650 ha        1 MOL      0.170800
@<TRIPOS>BOND
     1    1    2 ar  
     2    1    5 ar  
     3    2    7 ar  
     4    3    5 ar  
     5    3    8 ar  
     6    4    9 ar  
     7    4   10 ar  
     8    5    6 1   
     9    6   11 ar  
    10    6   12 ar  
    11    7    8 ar  
    12    7   13 1   
    13    8   14 1   
    14    9   11 ar  
    15    9   15 1   
    16   10   12 ar  
    17   10   16 1   
    18   11   17 1   
    19   12   18 1   
    20    1   19 1   
    21    2   20 1   
    22    3   21 1   
    23    4   22 1   
@<TRIPOS>SUBSTRUCTURE
     1 MOL         1 TEMP              0 ****  ****    0 ROOT
