@<TRIPOS>MOLECULE
SAMPL4_022
   33    34     1     0     0
SMALL
bcc


@<TRIPOS>ATOM
      1 C1          2.5420    1.6430    7.1220 ca        1 MOL     -0.204000
      2 C2          1.4730    1.4860    6.2400 ca        1 MOL     -0.050000
      3 C3          1.3610    0.2440    0.7270 ca        1 MOL     -0.113000
      4 C4          3.7200    0.9220    6.9260 ca        1 MOL     -0.028000
      5 C5          1.0830   -0.9510    0.0640 ca        1 MOL     -0.144000
      6 C6          1.5810    0.6060    5.1630 ca        1 MOL     -0.222000
      7 C7          1.9470    0.2200    1.9920 ca        1 MOL     -0.159000
      8 C8          3.8280    0.0430    5.8490 ca        1 MOL     -0.227600
      9 C9          1.3920   -2.1710    0.6660 ca        1 MOL     -0.055300
     10 C10         1.9780   -2.1950    1.9310 ca        1 MOL     -0.100300
     11 C11         2.7590   -0.1150    4.9670 ca        1 MOL      0.263600
     12 C12         2.2560   -1.0000    2.5950 ca        1 MOL      0.146600
     13 C13         5.0720   -0.6970    5.6720 c         1 MOL      0.666700
     14 C14         1.0850   -3.4360   -0.0660 c3        1 MOL     -0.054800
     15 C15         2.3080   -3.5060    2.5740 c3        1 MOL     -0.059800
     16 N1          2.8470   -1.0020    3.8710 nh        1 MOL     -0.654000
     17 O1          5.5310   -1.0710    4.5900 o         1 MOL     -0.592000
     18 O2          5.6990   -0.9430    6.8530 oh        1 MOL     -0.607100
     19 H1          2.4590    2.3290    7.9600 ha        1 MOL      0.139000
     20 H2          0.5560    2.0470    6.3930 ha        1 MOL      0.135000
     21 H3          1.1210    1.1940    0.2570 ha        1 MOL      0.134000
     22 H4          4.5450    1.0540    7.6210 ha        1 MOL      0.153000
     23 H5          0.6260   -0.9210   -0.9220 ha        1 MOL      0.133000
     24 H6          0.7410    0.4910    4.4830 ha        1 MOL      0.150000
     25 H7          2.1590    1.1580    2.4990 ha        1 MOL      0.143000
     26 H8          1.9400   -3.7350   -0.6840 hc        1 MOL      0.046033
     27 H9          0.8550   -4.2510    0.6310 hc        1 MOL      0.046033
     28 H10         0.2090   -3.3150   -0.7150 hc        1 MOL      0.046033
     29 H11         3.3240   -3.8130    2.3040 hc        1 MOL      0.049367
     30 H12         2.2390   -3.4370    3.6660 hc        1 MOL      0.049367
     31 H13         1.6080   -4.2870    2.2560 hc        1 MOL      0.049367
     32 H14         3.4570   -1.7960    4.0410 hn        1 MOL      0.474800
     33 H15         6.5380   -1.4400    6.7450 ho        1 MOL      0.446000
@<TRIPOS>BOND
     1    1    2 ar  
     2    1    4 ar  
     3    2    6 ar  
     4    3    5 ar  
     5    3    7 ar  
     6    4    8 ar  
     7    5    9 ar  
     8    6   11 ar  
     9    7   12 ar  
    10    8   11 ar  
    11    8   13 1   
    12    9   10 ar  
    13    9   14 1   
    14   10   12 ar  
    15   10   15 1   
    16   11   16 1   
    17   12   16 1   
    18   13   17 2   
    19   13   18 1   
    20    1   19 1   
    21    2   20 1   
    22    3   21 1   
    23    4   22 1   
    24    5   23 1   
    25    6   24 1   
    26    7   25 1   
    27   14   26 1   
    28   14   27 1   
    29   14   28 1   
    30   15   29 1   
    31   15   30 1   
    32   15   31 1   
    33   16   32 1   
    34   18   33 1   
@<TRIPOS>SUBSTRUCTURE
     1 TMP         1 TEMP              0 ****  ****    0 ROOT
