@<TRIPOS>MOLECULE
1,1,1,2,2-pentachloroethane
    8     7     1     0     0
SMALL
No Charge or Current Charge


@<TRIPOS>ATOM
      1 C1         -0.4930    0.4030   -0.4760 c3        1 MOL      0.119100
      2 C2          0.4490   -0.4710    0.3770 c3        1 MOL      0.227700
      3 Cl1        -1.9280    0.9730    0.4360 cl        1 MOL     -0.102900
      4 Cl2         0.3270    1.8410   -1.1650 cl        1 MOL     -0.104300
      5 Cl3         1.8460   -1.0380   -0.6070 cl        1 MOL     -0.095000
      6 Cl4        -0.4100   -1.9450    0.9550 cl        1 MOL     -0.094200
      7 Cl5         1.0870    0.4040    1.8080 cl        1 MOL     -0.075500
      8 H1         -0.8780   -0.1670   -1.3280 h2        1 MOL      0.125100
@<TRIPOS>BOND
     1    1    2 1   
     2    1    3 1   
     3    1    4 1   
     4    2    5 1   
     5    2    6 1   
     6    2    7 1   
     7    1    8 1   
@<TRIPOS>SUBSTRUCTURE
     1 MOL         1 TEMP              0 ****  ****    0 ROOT
