@<TRIPOS>MOLECULE
pentan_3_ol
   18    17     1     0     0
SMALL
No Charge or Current Charge


@<TRIPOS>ATOM
      1 C1         -0.2300    0.9450    0.2520 c3        1 MOL     -0.089900
      2 C2         -2.7410   -0.2450    4.5090 c3        1 MOL     -0.089900
      3 C3         -0.4530    1.2390    1.7300 c3        1 MOL     -0.108700
      4 C4         -1.6990    0.6410    3.8400 c3        1 MOL     -0.108700
      5 C5         -1.5320    0.3420    2.3460 c3        1 MOL      0.139100
      6 O1         -1.1460   -1.0190    2.1650 oh        1 MOL     -0.599300
      7 H1          0.5250    1.6250   -0.1570 hc        1 MOL      0.035400
      8 H2          0.1220   -0.0790    0.0980 hc        1 MOL      0.035400
      9 H3         -1.1540    1.0830   -0.3180 hc        1 MOL      0.035400
     10 H4         -2.8710    0.0510    5.5550 hc        1 MOL      0.035400
     11 H5         -3.7110   -0.1560    4.0090 hc        1 MOL      0.035400
     12 H6         -2.4410   -1.2970    4.4960 hc        1 MOL      0.035400
     13 H7          0.4980    1.0920    2.2560 hc        1 MOL      0.044900
     14 H8         -0.7350    2.2930    1.8430 hc        1 MOL      0.044900
     15 H9         -0.7430    0.4950    4.3580 hc        1 MOL      0.044900
     16 H10        -1.9920    1.6890    3.9770 hc        1 MOL      0.044900
     17 H11        -2.4820    0.4990    1.8210 h1        1 MOL      0.068800
     18 H12        -0.2030   -1.0690    2.3850 ho        1 MOL      0.396500
@<TRIPOS>BOND
     1    1    3 1   
     2    2    4 1   
     3    3    5 1   
     4    4    5 1   
     5    5    6 1   
     6    1    7 1   
     7    1    8 1   
     8    1    9 1   
     9    2   10 1   
    10    2   11 1   
    11    2   12 1   
    12    3   13 1   
    13    3   14 1   
    14    4   15 1   
    15    4   16 1   
    16    5   17 1   
    17    6   18 1   
@<TRIPOS>SUBSTRUCTURE
     1 R0_         1 TEMP              0 ****  ****    0 ROOT
