@<TRIPOS>MOLECULE
1_iodopentane
   17    16     1     0     0
SMALL
No Charge or Current Charge


@<TRIPOS>ATOM
      1 C1          1.1270   -1.4900    1.6200 c3        1 MOL     -0.090700
      2 C2          0.2360   -0.3610    2.1140 c3        1 MOL     -0.077800
      3 C3         -0.5620   -0.7170    3.3700 c3        1 MOL     -0.079000
      4 C4         -1.4780    0.4130    3.8480 c3        1 MOL     -0.073400
      5 C5         -2.2760   -0.0120    5.0800 c3        1 MOL      0.072500
      6 I1         -3.5730    1.5630    5.7200 i         1 MOL     -0.257100
      7 H1          0.5380   -2.3410    1.2660 hc        1 MOL      0.033200
      8 H2          1.7430   -1.1440    0.7830 hc        1 MOL      0.033200
      9 H3          1.7980   -1.8370    2.4120 hc        1 MOL      0.033200
     10 H4         -0.4470   -0.0580    1.3110 hc        1 MOL      0.038600
     11 H5          0.8670    0.5070    2.3380 hc        1 MOL      0.038600
     12 H6          0.1490   -0.9650    4.1680 hc        1 MOL      0.042200
     13 H7         -1.1560   -1.6210    3.1840 hc        1 MOL      0.042200
     14 H8         -0.8730    1.2980    4.0800 hc        1 MOL      0.051800
     15 H9         -2.1680    0.6970    3.0450 hc        1 MOL      0.051800
     16 H10        -1.5950   -0.2740    5.8980 h1        1 MOL      0.070400
     17 H11        -2.8720   -0.9030    4.8530 h1        1 MOL      0.070400
@<TRIPOS>BOND
     1    1    2 1   
     2    2    3 1   
     3    3    4 1   
     4    4    5 1   
     5    5    6 1   
     6    1    7 1   
     7    1    8 1   
     8    1    9 1   
     9    2   10 1   
    10    2   11 1   
    11    3   12 1   
    12    3   13 1   
    13    4   14 1   
    14    4   15 1   
    15    5   16 1   
    16    5   17 1   
@<TRIPOS>SUBSTRUCTURE
     1 R0_         1 TEMP              0 ****  ****    0 ROOT
