@<TRIPOS>MOLECULE
n_propylcyclopentane
   24    24     1     0     0
SMALL
No Charge or Current Charge


@<TRIPOS>ATOM
      1 C1         -0.3400    0.4880   -0.9210 c3        1 MOL     -0.079700
      2 C2         -1.6800   -0.1060   -1.3570 c3        1 MOL     -0.079700
      3 C3          0.6370    0.2130   -2.0600 c3        1 MOL     -0.077100
      4 C4         -1.4490   -0.6930   -2.7460 c3        1 MOL     -0.077100
      5 C5          0.0450   -0.9980   -2.7730 c3        1 MOL     -0.068400
      6 C6          0.5120   -2.6050   -6.2630 c3        1 MOL     -0.089800
      7 C7          0.5910   -1.1930   -4.1770 c3        1 MOL     -0.067700
      8 C8         -0.0550   -2.3930   -4.8690 c3        1 MOL     -0.077600
      9 H1         -0.4170    1.5600   -0.7140 hc        1 MOL      0.039000
     10 H2          0.0000    0.0000   -0.0000 hc        1 MOL      0.039000
     11 H3         -1.9820   -0.8930   -0.6570 hc        1 MOL      0.039000
     12 H4         -2.4750    0.6460   -1.3690 hc        1 MOL      0.039000
     13 H5          0.6760    1.0790   -2.7330 hc        1 MOL      0.041600
     14 H6          1.6520    0.0280   -1.6940 hc        1 MOL      0.041600
     15 H7         -2.0610   -1.5830   -2.9230 hc        1 MOL      0.041600
     16 H8         -1.7070    0.0500   -3.5110 hc        1 MOL      0.041600
     17 H9          0.2450   -1.9030   -2.1860 hc        1 MOL      0.047900
     18 H10         0.3370   -1.7290   -6.8960 hc        1 MOL      0.031200
     19 H11         1.5900   -2.7910   -6.2240 hc        1 MOL      0.031200
     20 H12         0.0360   -3.4680   -6.7390 hc        1 MOL      0.031200
     21 H13         1.6770   -1.3350   -4.1250 hc        1 MOL      0.038400
     22 H14         0.4110   -0.2840   -4.7640 hc        1 MOL      0.038400
     23 H15        -1.1390   -2.2420   -4.9400 hc        1 MOL      0.038200
     24 H16         0.1070   -3.2980   -4.2720 hc        1 MOL      0.038200
@<TRIPOS>BOND
     1    1    2 1   
     2    1    3 1   
     3    2    4 1   
     4    3    5 1   
     5    4    5 1   
     6    5    7 1   
     7    6    8 1   
     8    7    8 1   
     9    1    9 1   
    10    1   10 1   
    11    2   11 1   
    12    2   12 1   
    13    3   13 1   
    14    3   14 1   
    15    4   15 1   
    16    4   16 1   
    17    5   17 1   
    18    6   18 1   
    19    6   19 1   
    20    6   20 1   
    21    7   21 1   
    22    7   22 1   
    23    8   23 1   
    24    8   24 1   
@<TRIPOS>SUBSTRUCTURE
     1 R0_         1 TEMP              0 ****  ****    0 ROOT
