@<TRIPOS>MOLECULE
1234_tetrachlorobenzene
   12    12     1     0     0
SMALL
No Charge or Current Charge


@<TRIPOS>ATOM
      1 C1          1.8850   -1.0380   -0.1090 ca        1 MOL     -0.110500
      2 C2          0.8180   -0.4410    0.5630 ca        1 MOL     -0.110500
      3 C3          2.9350   -1.6040    0.6140 ca        1 MOL      0.021700
      4 C4          0.8010   -0.4100    1.9570 ca        1 MOL      0.021700
      5 C5          2.9180   -1.5730    2.0080 ca        1 MOL      0.022700
      6 C6          1.8510   -0.9770    2.6800 ca        1 MOL      0.022700
      7 Cl1         4.2210   -2.3250   -0.2920 cl        1 MOL     -0.055600
      8 Cl2        -0.5570    0.3470    2.7170 cl        1 MOL     -0.055600
      9 Cl3         4.2340   -2.2840    2.8980 cl        1 MOL     -0.038000
     10 Cl4         1.8180   -0.9320    4.4190 cl        1 MOL     -0.038000
     11 H1          1.8810   -1.0520   -1.1960 ha        1 MOL      0.159700
     12 H2          0.0080   -0.0050   -0.0170 ha        1 MOL      0.159700
@<TRIPOS>BOND
     1    1    2 ar  
     2    1    3 ar  
     3    2    4 ar  
     4    3    5 ar  
     5    3    7 1   
     6    4    6 ar  
     7    4    8 1   
     8    5    6 ar  
     9    5    9 1   
    10    6   10 1   
    11    1   11 1   
    12    2   12 1   
@<TRIPOS>SUBSTRUCTURE
     1 R0_         1 TEMP              0 ****  ****    0 ROOT
