@<TRIPOS>MOLECULE
3_ethylphenol
   19    19     1     0     0
SMALL
No Charge or Current Charge


@<TRIPOS>ATOM
      1 C1          0.8320   -0.3950    0.5750 ca        1 MOL     -0.090000
      2 C2          1.8990   -1.0140   -0.0770 ca        1 MOL     -0.163400
      3 C3          0.8350   -0.2830    1.9660 ca        1 MOL     -0.216800
      4 C4          2.9710   -1.4090    2.0520 ca        1 MOL     -0.155600
      5 C5          2.9680   -1.5200    0.6620 ca        1 MOL     -0.033700
      6 C6          1.9040   -0.7900    2.7040 ca        1 MOL      0.125500
      7 C7          5.2120   -1.1950   -0.4080 c3        1 MOL     -0.086600
      8 C8          4.1090   -2.1820   -0.0350 c3        1 MOL     -0.048200
      9 O1          1.9060   -0.6800    4.0610 oh        1 MOL     -0.500700
     10 H1         -0.0010   -0.0010    0.0000 ha        1 MOL      0.131700
     11 H2          1.8890   -1.0960   -1.1600 ha        1 MOL      0.133300
     12 H3          0.0010    0.2000    2.4670 ha        1 MOL      0.132400
     13 H4          3.8030   -1.8030    2.6310 ha        1 MOL      0.149700
     14 H5          4.8330   -0.4160   -1.0780 hc        1 MOL      0.036300
     15 H6          6.0350   -1.7080   -0.9160 hc        1 MOL      0.036300
     16 H7          5.6180   -0.7040    0.4830 hc        1 MOL      0.036300
     17 H8          4.5360   -2.9770    0.5960 hc        1 MOL      0.047500
     18 H9          3.7580   -2.6910   -0.9470 hc        1 MOL      0.047500
     19 H10         1.2260   -0.0340    4.3260 ho        1 MOL      0.418700
@<TRIPOS>BOND
     1    1    2 ar  
     2    1    3 ar  
     3    2    5 ar  
     4    3    6 ar  
     5    4    5 ar  
     6    4    6 ar  
     7    5    8 1   
     8    6    9 1   
     9    7    8 1   
    10    1   10 1   
    11    2   11 1   
    12    3   12 1   
    13    4   13 1   
    14    7   14 1   
    15    7   15 1   
    16    7   16 1   
    17    8   17 1   
    18    8   18 1   
    19    9   19 1   
@<TRIPOS>SUBSTRUCTURE
     1 R0_         1 TEMP              0 ****  ****    0 ROOT
