@<TRIPOS>MOLECULE
isoamyl_formate
   20    19     1     0     0
SMALL
No Charge or Current Charge


@<TRIPOS>ATOM
      1 C1         -1.3180   -2.1660   -5.8540 c         1 MOL      0.628600
      2 C2         -2.1890   -1.7200   -0.7220 c3        1 MOL     -0.088700
      3 C3         -0.2100   -3.2510   -0.7600 c3        1 MOL     -0.088700
      4 C4         -0.3810   -1.3240   -2.4190 c3        1 MOL     -0.093300
      5 C5         -1.1140   -2.0990   -3.5070 c3        1 MOL      0.137200
      6 C6         -0.6860   -1.8170   -0.9950 c3        1 MOL     -0.064200
      7 O1         -2.1120   -3.0940   -5.8510 o         1 MOL     -0.540400
      8 O2         -0.7410   -1.5710   -4.7730 os        1 MOL     -0.448700
      9 H1         -0.9540   -1.6720   -6.7680 h5        1 MOL      0.078600
     10 H2         -2.4200   -2.0310    0.3020 hc        1 MOL      0.034000
     11 H3         -2.7590   -2.3570   -1.4070 hc        1 MOL      0.034000
     12 H4         -2.5410   -0.6900   -0.8440 hc        1 MOL      0.034000
     13 H5         -0.6460   -3.9390   -1.4920 hc        1 MOL      0.034000
     14 H6         -0.4950   -3.5960    0.2400 hc        1 MOL      0.034000
     15 H7          0.8800   -3.3250   -0.8290 hc        1 MOL      0.034000
     16 H8          0.6990   -1.3960   -2.6080 hc        1 MOL      0.054000
     17 H9         -0.6210   -0.2570   -2.5130 hc        1 MOL      0.054000
     18 H10        -0.8430   -3.1600   -3.4800 h1        1 MOL      0.058400
     19 H11        -2.1980   -2.0030   -3.4060 h1        1 MOL      0.058400
     20 H12        -0.1720   -1.1630   -0.2790 hc        1 MOL      0.050600
@<TRIPOS>BOND
     1    1    7 2   
     2    1    8 1   
     3    2    6 1   
     4    3    6 1   
     5    4    5 1   
     6    4    6 1   
     7    5    8 1   
     8    1    9 1   
     9    2   10 1   
    10    2   11 1   
    11    2   12 1   
    12    3   13 1   
    13    3   14 1   
    14    3   15 1   
    15    4   16 1   
    16    4   17 1   
    17    5   18 1   
    18    5   19 1   
    19    6   20 1   
@<TRIPOS>SUBSTRUCTURE
     1 R0_         1 TEMP              0 ****  ****    0 ROOT
