@<TRIPOS>MOLECULE
benzaldehyde
   14    14     1     0     0
SMALL
No Charge or Current Charge


@<TRIPOS>ATOM
      1 C1          1.8850   -1.0380   -0.1090 ca        1 MOL     -0.098400
      2 C2          0.8180   -0.4410    0.5630 ca        1 MOL     -0.145200
      3 C3          2.9350   -1.6040    0.6140 ca        1 MOL     -0.145200
      4 C4          0.8010   -0.4100    1.9570 ca        1 MOL     -0.078100
      5 C5          2.9180   -1.5730    2.0080 ca        1 MOL     -0.078100
      6 C6          1.8510   -0.9770    2.6800 ca        1 MOL     -0.197400
      7 C7          1.8330   -0.9450    4.1340 c         1 MOL      0.572500
      8 O1          2.7310   -1.4280    4.8290 o         1 MOL     -0.526000
      9 H1          1.8970   -1.0610   -1.1950 ha        1 MOL      0.135300
     10 H2          0.0000    0.0000   -0.0000 ha        1 MOL      0.137400
     11 H3          3.7650   -2.0690    0.0910 ha        1 MOL      0.137400
     12 H4         -0.0360    0.0570    2.4700 ha        1 MOL      0.144100
     13 H5          3.7420   -2.0180    2.5610 ha        1 MOL      0.144100
     14 H6          0.9620   -0.4580    4.6240 h4        1 MOL     -0.002300
@<TRIPOS>BOND
     1    1    2 ar  
     2    1    3 ar  
     3    2    4 ar  
     4    3    5 ar  
     5    4    6 ar  
     6    5    6 ar  
     7    6    7 1   
     8    7    8 2   
     9    1    9 1   
    10    2   10 1   
    11    3   11 1   
    12    4   12 1   
    13    5   13 1   
    14    7   14 1   
@<TRIPOS>SUBSTRUCTURE
     1 R0_         1 TEMP              0 ****  ****    0 ROOT
