@<TRIPOS>MOLECULE
25_dimethylphenol
   19    19     1     0     0
SMALL
No Charge or Current Charge


@<TRIPOS>ATOM
      1 C1          1.8740   -1.0530   -0.1330 ca        1 MOL     -0.163800
      2 C2          0.8060   -0.4740    0.5520 ca        1 MOL     -0.089000
      3 C3          2.8760   -1.6930    1.9700 ca        1 MOL     -0.157400
      4 C4          2.9090   -1.6630    0.5760 ca        1 MOL     -0.036700
      5 C5          0.7730   -0.5050    1.9460 ca        1 MOL     -0.154800
      6 C6          1.8080   -1.1140    2.6550 ca        1 MOL      0.129400
      7 C7          4.0510   -2.2820   -0.1570 c3        1 MOL     -0.062200
      8 C8         -0.3780    0.1200    2.6630 c3        1 MOL     -0.059700
      9 O1          1.7920   -1.1530    4.0170 oh        1 MOL     -0.502100
     10 H1          1.8920   -1.0250   -1.2200 ha        1 MOL      0.132700
     11 H2          0.0040   -0.0010   -0.0100 ha        1 MOL      0.131000
     12 H3          3.6820   -2.1680    2.5240 ha        1 MOL      0.149100
     13 H4          4.8280   -2.6040    0.5470 hc        1 MOL      0.045100
     14 H5          3.7250   -3.1550   -0.7380 hc        1 MOL      0.045100
     15 H6          4.4980   -1.5760   -0.8700 hc        1 MOL      0.045100
     16 H7         -0.3040   -0.0700    3.7400 hc        1 MOL      0.042600
     17 H8         -0.4050    1.2050    2.5010 hc        1 MOL      0.042600
     18 H9         -1.3340   -0.2800    2.3030 hc        1 MOL      0.042600
     19 H10         1.1570   -0.4890    4.3420 ho        1 MOL      0.420400
@<TRIPOS>BOND
     1    1    2 ar  
     2    1    4 ar  
     3    2    5 ar  
     4    3    4 ar  
     5    3    6 ar  
     6    4    7 1   
     7    5    6 ar  
     8    5    8 1   
     9    6    9 1   
    10    1   10 1   
    11    2   11 1   
    12    3   12 1   
    13    7   13 1   
    14    7   14 1   
    15    7   15 1   
    16    8   16 1   
    17    8   17 1   
    18    8   18 1   
    19    9   19 1   
@<TRIPOS>SUBSTRUCTURE
     1 R0_         1 TEMP              0 ****  ****    0 ROOT
