@<TRIPOS>MOLECULE
hexanoic_acid
   20    19     1     0     0
SMALL
No Charge or Current Charge


@<TRIPOS>ATOM
      1 C1          1.8840   -2.4290   -4.5140 c         1 MOL      0.634200
      2 C2         -0.0300    2.7190   -1.1890 c3        1 MOL     -0.090700
      3 C3          2.1160   -1.2090   -3.6520 c3        1 MOL     -0.123800
      4 C4         -0.2810    1.4700   -2.0190 c3        1 MOL     -0.076700
      5 C5          0.8040   -0.5230   -3.2730 c3        1 MOL     -0.076600
      6 C6          1.0010    0.7710   -2.4770 c3        1 MOL     -0.078500
      7 O1          0.7920   -2.8560   -4.8620 o         1 MOL     -0.548200
      8 O2          3.0580   -3.0190   -4.8630 oh        1 MOL     -0.613100
      9 H1         -0.9770    3.1140   -0.8090 hc        1 MOL      0.033500
     10 H2          0.6140    2.4980   -0.3320 hc        1 MOL      0.033500
     11 H3          0.4410    3.5070   -1.7840 hc        1 MOL      0.033500
     12 H4          2.6480   -1.5330   -2.7520 hc        1 MOL      0.078500
     13 H5          2.7460   -0.5090   -4.2120 hc        1 MOL      0.078500
     14 H6         -0.8620    0.7610   -1.4160 hc        1 MOL      0.038800
     15 H7         -0.9070    1.7230   -2.8820 hc        1 MOL      0.038800
     16 H8          0.1670   -1.2180   -2.7120 hc        1 MOL      0.055500
     17 H9          0.2470   -0.2780   -4.1870 hc        1 MOL      0.055500
     18 H10         1.5850    1.4680   -3.0910 hc        1 MOL      0.042100
     19 H11         1.6130    0.5540   -1.5930 hc        1 MOL      0.042100
     20 H12         2.9670   -3.8210   -5.4210 ho        1 MOL      0.443100
@<TRIPOS>BOND
     1    1    3 1   
     2    1    7 2   
     3    1    8 1   
     4    2    4 1   
     5    3    5 1   
     6    4    6 1   
     7    5    6 1   
     8    2    9 1   
     9    2   10 1   
    10    2   11 1   
    11    3   12 1   
    12    3   13 1   
    13    4   14 1   
    14    4   15 1   
    15    5   16 1   
    16    5   17 1   
    17    6   18 1   
    18    6   19 1   
    19    8   20 1   
@<TRIPOS>SUBSTRUCTURE
     1 R0_         1 TEMP              0 ****  ****    0 ROOT
