@<TRIPOS>MOLECULE
TMP
   17    16     1     0     0
SMALL
bcc


@<TRIPOS>ATOM
      1 C1         -6.3040   -7.6060   -2.5800 c3        1 MOL      -0.0933
      2 C2         -5.7280   -6.7080   -1.4960 c3        1 MOL      -0.0795
      3 C3         -5.4290   -7.4930   -0.2190 c3        1 MOL      -0.0809
      4 C4         -4.8490   -6.5870    0.8680 c3        1 MOL      -0.0816
      5 C5         -4.5540   -7.3740    2.1340 c3        1 MOL      -0.0084
      6 Br1        -3.8190   -6.1880    3.4910 br        1 MOL      -0.1796
      7 H1         -6.5110   -7.0250   -3.4830 hc        1 MOL       0.0353
      8 H2         -5.6030   -8.4040   -2.8420 hc        1 MOL       0.0335
      9 H3         -7.2410   -8.0670   -2.2500 hc        1 MOL       0.0335
     10 H4         -4.8110   -6.2390   -1.8690 hc        1 MOL       0.0411
     11 H5         -6.4400   -5.9030   -1.2800 hc        1 MOL       0.0411
     12 H6         -6.3490   -7.9640    0.1470 hc        1 MOL       0.0418
     13 H7         -4.7190   -8.3000   -0.4420 hc        1 MOL       0.0418
     14 H8         -3.9310   -6.1120    0.4990 hc        1 MOL       0.0560
     15 H9         -5.5570   -5.7780    1.0860 hc        1 MOL       0.0560
     16 H10        -5.4580   -7.8160    2.5610 h1        1 MOL       0.0717
     17 H11        -3.8080   -8.1560    1.9650 h1        1 MOL       0.0717
@<TRIPOS>BOND
     1    1    2 1   
     2    1    7 1   
     3    1    8 1   
     4    1    9 1   
     5    2    3 1   
     6    2   10 1   
     7    2   11 1   
     8    3    4 1   
     9    3   12 1   
    10    3   13 1   
    11    4    5 1   
    12    4   14 1   
    13    4   15 1   
    14    5    6 1   
    15    5   16 1   
    16    5   17 1   
@<TRIPOS>SUBSTRUCTURE
     1 TMP         1 TEMP              0 ****  ****    0 ROOT
