@<TRIPOS>MOLECULE
CUP08009_AM1BCC_v1_0
   32    32     1     0     0
SMALL
No Charge or Current Charge


@<TRIPOS>ATOM
      1 C1          0.8260   -2.1460   -1.9290 ca        1 MOL      0.928400
      2 C2          2.0360   -1.9200   -0.0450 ca        1 MOL      0.927400
      3 C3          2.6690   -3.3720   -1.6210 ca        1 MOL      0.797100
      4 C4         -1.3900   -1.2620   -4.7620 c3        1 MOL     -0.109200
      5 C5          1.8380   -3.0790    2.8140 c3        1 MOL     -0.111300
      6 C6          3.1860   -1.0400    3.3630 c3        1 MOL     -0.111300
      7 C7          5.1080   -4.5080   -1.0160 c3        1 MOL     -0.064200
      8 C8         -0.1290   -1.7920   -4.0980 c3        1 MOL      0.215500
      9 C9          2.8030   -2.0300    2.2620 c3        1 MOL      0.213300
     10 N1          0.9850   -1.5440   -0.7580 nb        1 MOL     -0.846100
     11 N2          1.6450   -3.0670   -2.4070 nb        1 MOL     -0.804600
     12 N3          2.9100   -2.8340   -0.4330 nb        1 MOL     -0.836000
     13 N4         -0.2910   -1.7500   -2.6560 nh        1 MOL     -0.845500
     14 N5          2.1880   -1.2800    1.1750 nh        1 MOL     -0.825700
     15 S1          3.7830   -4.6140   -2.2430 ss        1 MOL     -0.194400
     16 H1         -2.2630   -1.8610   -4.4810 hc        1 MOL      0.044200
     17 H2         -1.5860   -0.2260   -4.4650 hc        1 MOL      0.044200
     18 H3         -1.2900   -1.2920   -5.8510 hc        1 MOL      0.044200
     19 H4          0.9030   -2.6210    3.1540 hc        1 MOL      0.042900
     20 H5          1.5830   -3.8250    2.0530 hc        1 MOL      0.042900
     21 H6          2.2850   -3.6100    3.6610 hc        1 MOL      0.042900
     22 H7          2.3080   -0.5100    3.7490 hc        1 MOL      0.042900
     23 H8          3.8840   -0.2860    2.9800 hc        1 MOL      0.042900
     24 H9          3.6700   -1.5540    4.1990 hc        1 MOL      0.042900
     25 H10         5.9020   -5.2080   -1.2890 h1        1 MOL      0.074000
     26 H11         4.7420   -4.7790   -0.0220 h1        1 MOL      0.074000
     27 H12         5.5350   -3.5010   -0.9900 h1        1 MOL      0.074000
     28 H13         0.7250   -1.1770   -4.4100 h1        1 MOL      0.051800
     29 H14         0.0410   -2.8190   -4.4420 h1        1 MOL      0.051800
     30 H15         3.7260   -2.5200    1.9280 h1        1 MOL      0.081500
     31 H16        -0.5790   -0.8550   -2.2730 hn        1 MOL      0.442300
     32 H17         1.3040   -0.8320    1.3910 hn        1 MOL      0.427400
@<TRIPOS>BOND
     1    1   10 ar  
     2    1   11 ar  
     3    1   13 1   
     4    2   10 ar  
     5    2   12 ar  
     6    2   14 1   
     7    3   11 ar  
     8    3   12 ar  
     9    3   15 1   
    10    4    8 1   
    11    5    9 1   
    12    6    9 1   
    13    7   15 1   
    14    8   13 1   
    15    9   14 1   
    16    4   16 1   
    17    4   17 1   
    18    4   18 1   
    19    5   19 1   
    20    5   20 1   
    21    5   21 1   
    22    6   22 1   
    23    6   23 1   
    24    6   24 1   
    25    7   25 1   
    26    7   26 1   
    27    7   27 1   
    28    8   28 1   
    29    8   29 1   
    30    9   30 1   
    31   13   31 1   
    32   14   32 1   
@<TRIPOS>SUBSTRUCTURE
     1 R0_         1 TEMP              0 ****  ****    0 ROOT
