@<TRIPOS>MOLECULE
2_methyltetrahydrofuran
   16    16     1     0     0
SMALL
No Charge or Current Charge


@<TRIPOS>ATOM
      1 C1          0.9180   -0.3720    0.4620 c3        1 MOL     -0.109800
      2 C2          0.6780   -1.2620    1.6550 c3        1 MOL     -0.107100
      3 C3          1.7110   -1.2800   -0.4500 c3        1 MOL      0.126400
      4 C4          1.9620   -2.0750    1.7320 c3        1 MOL      0.135600
      5 C5          3.0090   -1.4460    2.6420 c3        1 MOL     -0.099000
      6 O1          2.4970   -2.1290    0.3980 os        1 MOL     -0.431500
      7 H1          0.0010    0.0030    0.0000 hc        1 MOL      0.053900
      8 H2          1.5300    0.4880    0.7590 hc        1 MOL      0.053900
      9 H3          0.4480   -0.7130    2.5730 hc        1 MOL      0.054400
     10 H4         -0.1660   -1.9310    1.4430 hc        1 MOL      0.054400
     11 H5          1.0500   -1.9200   -1.0440 h1        1 MOL      0.045400
     12 H6          2.3660   -0.7280   -1.1290 h1        1 MOL      0.045400
     13 H7          1.7640   -3.0960    2.0720 h1        1 MOL      0.051200
     14 H8          2.8410   -0.3690    2.7340 hc        1 MOL      0.042200
     15 H9          2.9640   -1.8890    3.6420 hc        1 MOL      0.042200
     16 H10         4.0130   -1.6050    2.2400 hc        1 MOL      0.042200
@<TRIPOS>BOND
     1    1    2 1   
     2    1    3 1   
     3    2    4 1   
     4    3    6 1   
     5    4    5 1   
     6    4    6 1   
     7    1    7 1   
     8    1    8 1   
     9    2    9 1   
    10    2   10 1   
    11    3   11 1   
    12    3   12 1   
    13    4   13 1   
    14    5   14 1   
    15    5   15 1   
    16    5   16 1   
@<TRIPOS>SUBSTRUCTURE
     1 R0_         1 TEMP              0 ****  ****    0 ROOT
