@<TRIPOS>MOLECULE
1_chlorohexane
   20    19     1     0     0
SMALL
No Charge or Current Charge


@<TRIPOS>ATOM
      1 C1          0.6570   -0.6720    0.5620 c3        1 MOL     -0.090100
      2 C2          0.0260   -1.0250    1.9000 c3        1 MOL     -0.077600
      3 C3          0.9420   -1.9260    2.7290 c3        1 MOL     -0.077000
      4 C4          0.2900   -2.3070    4.0610 c3        1 MOL     -0.079300
      5 C5          1.2210   -3.1860    4.9020 c3        1 MOL     -0.087700
      6 C6          0.5870   -3.6600    6.2060 c3        1 MOL      0.041700
      7 Cl1         0.1400   -2.3010    7.2630 cl        1 MOL     -0.202300
      8 H1          1.6030   -0.1390    0.7030 hc        1 MOL      0.032200
      9 H2         -0.0140   -0.0270   -0.0140 hc        1 MOL      0.032200
     10 H3          0.8540   -1.5720   -0.0280 hc        1 MOL      0.032200
     11 H4         -0.1870   -0.1020    2.4520 hc        1 MOL      0.038500
     12 H5         -0.9320   -1.5280    1.7250 hc        1 MOL      0.038500
     13 H6          1.8910   -1.4110    2.9190 hc        1 MOL      0.039200
     14 H7          1.1750   -2.8350    2.1610 hc        1 MOL      0.039200
     15 H8         -0.6470   -2.8430    3.8700 hc        1 MOL      0.044700
     16 H9          0.0340   -1.3930    4.6100 hc        1 MOL      0.044700
     17 H10         2.1520   -2.6470    5.1140 hc        1 MOL      0.053100
     18 H11         1.4960   -4.0720    4.3160 hc        1 MOL      0.053100
     19 H12        -0.3140   -4.2500    6.0160 h1        1 MOL      0.062500
     20 H13         1.2940   -4.2830    6.7620 h1        1 MOL      0.062500
@<TRIPOS>BOND
     1    1    2 1   
     2    2    3 1   
     3    3    4 1   
     4    4    5 1   
     5    5    6 1   
     6    6    7 1   
     7    1    8 1   
     8    1    9 1   
     9    1   10 1   
    10    2   11 1   
    11    2   12 1   
    12    3   13 1   
    13    3   14 1   
    14    4   15 1   
    15    4   16 1   
    16    5   17 1   
    17    5   18 1   
    18    6   19 1   
    19    6   20 1   
@<TRIPOS>SUBSTRUCTURE
     1 R0_         1 TEMP              0 ****  ****    0 ROOT
