@<TRIPOS>MOLECULE
isobutyl_acetate
   20    19     1     0     0
SMALL
No Charge or Current Charge


@<TRIPOS>ATOM
      1 C1          2.9550    2.5470    2.0630 c         1 MOL      0.631100
      2 C2          3.7240    1.9940    3.2250 c3        1 MOL     -0.149900
      3 C3          1.0310   -0.3730   -0.2610 c3        1 MOL     -0.087500
      4 C4          1.1230    1.1730   -2.2350 c3        1 MOL     -0.087500
      5 C5          1.9990    1.9490   -0.0130 c3        1 MOL      0.139600
      6 C6          1.8180    0.7470   -0.9440 c3        1 MOL     -0.079800
      7 O1          2.5970    3.7130    1.9720 o         1 MOL     -0.537700
      8 O2          2.7240    1.5600    1.1460 os        1 MOL     -0.443500
      9 H1          4.6920    1.6170    2.8830 hc        1 MOL      0.074100
     10 H2          3.1490    1.1990    3.7060 hc        1 MOL      0.074100
     11 H3          3.8980    2.7890    3.9560 hc        1 MOL      0.074100
     12 H4          0.9100   -1.2280   -0.9350 hc        1 MOL      0.036900
     13 H5          0.0330   -0.0330    0.0360 hc        1 MOL      0.036900
     14 H6          1.5480   -0.7300    0.6360 hc        1 MOL      0.036900
     15 H7          1.0180    0.3240   -2.9190 hc        1 MOL      0.036900
     16 H8          1.7010    1.9470   -2.7510 hc        1 MOL      0.036900
     17 H9          0.1230    1.5720   -2.0360 hc        1 MOL      0.036900
     18 H10         2.5630    2.7420   -0.5150 h1        1 MOL      0.056900
     19 H11         1.0310    2.3550    0.3010 h1        1 MOL      0.056900
     20 H12         2.8090    0.3460   -1.1930 hc        1 MOL      0.058200
@<TRIPOS>BOND
     1    1    2 1   
     2    1    7 2   
     3    1    8 1   
     4    3    6 1   
     5    4    6 1   
     6    5    6 1   
     7    5    8 1   
     8    2    9 1   
     9    2   10 1   
    10    2   11 1   
    11    3   12 1   
    12    3   13 1   
    13    3   14 1   
    14    4   15 1   
    15    4   16 1   
    16    4   17 1   
    17    5   18 1   
    18    5   19 1   
    19    6   20 1   
@<TRIPOS>SUBSTRUCTURE
     1 R0_         1 TEMP              0 ****  ****    0 ROOT
