@<TRIPOS>MOLECULE
but_1_yne
   10     9     1     0     0
SMALL
No Charge or Current Charge


@<TRIPOS>ATOM
      1 C1          1.3440   -3.0190    1.4500 c1        1 MOL     -0.162500
      2 C2          1.3990   -1.8210    1.4970 c1        1 MOL     -0.131100
      3 C3          1.0320    0.2740    0.2460 c3        1 MOL     -0.086400
      4 C4          1.4680   -0.3550    1.5590 c3        1 MOL     -0.009900
      5 H1          1.2950   -4.0820    1.4090 ha        1 MOL      0.162900
      6 H2          0.0000    0.0000   -0.0000 hc        1 MOL      0.038200
      7 H3          1.6720   -0.0530   -0.5810 hc        1 MOL      0.038200
      8 H4          1.0890    1.3650    0.3100 hc        1 MOL      0.038200
      9 H5          0.8280    0.0120    2.3680 hc        1 MOL      0.056200
     10 H6          2.4920   -0.0420    1.7890 hc        1 MOL      0.056200
@<TRIPOS>BOND
     1    1    2 3   
     2    2    4 1   
     3    3    4 1   
     4    1    5 1   
     5    3    6 1   
     6    3    7 1   
     7    3    8 1   
     8    4    9 1   
     9    4   10 1   
@<TRIPOS>SUBSTRUCTURE
     1 R0_         1 TEMP              0 ****  ****    0 ROOT
