@<TRIPOS>MOLECULE
morpholine
   15    15     1     0     0
SMALL
No Charge or Current Charge


@<TRIPOS>ATOM
      1 C1          1.0250   -0.3810    0.0560 c3        1 MOL      0.119800
      2 C2          2.4950   -2.1400   -0.6470 c3        1 MOL      0.119800
      3 C3          1.9950    0.6360   -0.5350 c3        1 MOL      0.105300
      4 C4          3.4380   -1.0910   -1.2250 c3        1 MOL      0.105300
      5 N1          1.1100   -1.6580   -0.6600 n3        1 MOL     -0.803400
      6 O1          3.3300    0.1300   -0.4910 os        1 MOL     -0.415800
      7 H1          1.2540   -0.5450    1.1160 h1        1 MOL      0.051400
      8 H2          0.0020    0.0030   -0.0070 h1        1 MOL      0.051400
      9 H3          2.5620   -3.0620   -1.2330 h1        1 MOL      0.051400
     10 H4          2.7850   -2.3780    0.3830 h1        1 MOL      0.051400
     11 H5          1.7340    0.8880   -1.5700 h1        1 MOL      0.051800
     12 H6          1.9690    1.5610    0.0490 h1        1 MOL      0.051800
     13 H7          4.4730   -1.4360   -1.1490 h1        1 MOL      0.051800
     14 H8          3.2290   -0.8990   -2.2850 h1        1 MOL      0.051800
     15 H9          0.5070   -2.3430   -0.2060 hn        1 MOL      0.355700
@<TRIPOS>BOND
     1    1    3 1   
     2    1    5 1   
     3    2    4 1   
     4    2    5 1   
     5    3    6 1   
     6    4    6 1   
     7    1    7 1   
     8    1    8 1   
     9    2    9 1   
    10    2   10 1   
    11    3   11 1   
    12    3   12 1   
    13    4   13 1   
    14    4   14 1   
    15    5   15 1   
@<TRIPOS>SUBSTRUCTURE
     1 R0_         1 TEMP              0 ****  ****    0 ROOT
