@<TRIPOS>MOLECULE
4_chlorophenol
   13    13     1     0     0
SMALL
No Charge or Current Charge


@<TRIPOS>ATOM
      1 C1          0.8180   -0.4390    0.5640 ca        1 MOL     -0.178000
      2 C2          2.9370   -1.5970    0.6200 ca        1 MOL     -0.178000
      3 C3          0.7990   -0.4060    1.9590 ca        1 MOL     -0.087400
      4 C4          2.9180   -1.5650    2.0140 ca        1 MOL     -0.087400
      5 C5          1.8870   -1.0340   -0.1050 ca        1 MOL      0.126300
      6 C6          1.8500   -0.9690    2.6840 ca        1 MOL     -0.019600
      7 O1          1.9060   -1.0640   -1.4660 oh        1 MOL     -0.495500
      8 Cl1         1.8270   -0.9290    4.4040 cl        1 MOL     -0.095500
      9 H1         -0.0030    0.0030    0.0050 ha        1 MOL      0.147300
     10 H2          3.7730   -2.0620    0.1040 ha        1 MOL      0.147300
     11 H3         -0.0400    0.0620    2.4670 ha        1 MOL      0.149300
     12 H4          3.7440   -2.0070    2.5660 ha        1 MOL      0.149300
     13 H5          2.6780   -1.5830   -1.7580 ho        1 MOL      0.421800
@<TRIPOS>BOND
     1    1    3 ar  
     2    1    5 ar  
     3    2    4 ar  
     4    2    5 ar  
     5    3    6 ar  
     6    4    6 ar  
     7    5    7 1   
     8    6    8 1   
     9    1    9 1   
    10    2   10 1   
    11    3   11 1   
    12    4   12 1   
    13    7   13 1   
@<TRIPOS>SUBSTRUCTURE
     1 R0_         1 TEMP              0 ****  ****    0 ROOT
