@<TRIPOS>MOLECULE
SAMPL4_046
   26    28     1     0     0
SMALL
bcc


@<TRIPOS>ATOM
      1 C1          7.9850   -1.3100    3.4420 ca        1 MOL     -0.119000
      2 C2          7.5360   -0.0970    3.9590 ca        1 MOL     -0.117000
      3 C3          1.6750   -2.0370   -0.3310 ca        1 MOL     -0.069000
      4 C4          7.1790   -2.0390    2.5660 ca        1 MOL     -0.086000
      5 C5          6.2800    0.3940    3.6020 ca        1 MOL     -0.088000
      6 C6          2.9320   -2.5280    0.0260 ca        1 MOL     -0.142000
      7 C7          1.2270   -0.8230    0.1860 ca        1 MOL     -0.200000
      8 C8          5.9180   -1.5500    2.2050 ca        1 MOL     -0.129600
      9 C9          5.4680   -0.3340    2.7230 ca        1 MOL     -0.124600
     10 C10         3.7430   -1.8000    0.9050 ca        1 MOL     -0.082600
     11 C11         3.2940   -0.5840    1.4230 ca        1 MOL     -0.219600
     12 C12         2.0320   -0.0950    1.0620 ca        1 MOL      0.232600
     13 C13         5.0720   -2.3280    1.2770 c         1 MOL      0.582300
     14 C14         4.1400    0.1940    2.3510 c         1 MOL      0.604300
     15 N1          1.5090    1.1270    1.5440 nh        1 MOL     -0.846200
     16 O1          5.4660   -3.3940    0.8230 o         1 MOL     -0.522100
     17 O2          3.7790    1.2640    2.8250 o         1 MOL     -0.564100
     18 H1          8.9630   -1.6900    3.7210 ha        1 MOL      0.141000
     19 H2          8.1650    0.4680    4.6410 ha        1 MOL      0.140000
     20 H3          1.0460   -2.6020   -1.0120 ha        1 MOL      0.140000
     21 H4          7.5530   -2.9820    2.1760 ha        1 MOL      0.158000
     22 H5          5.9550    1.3430    4.0200 ha        1 MOL      0.158000
     23 H6          3.2590   -3.4760   -0.3910 ha        1 MOL      0.159000
     24 H7          0.2450   -0.4550   -0.1020 ha        1 MOL      0.137000
     25 H8          0.6220    1.4400    1.2100 hn        1 MOL      0.429800
     26 H9          2.0770    1.6970    2.1350 hn        1 MOL      0.429800
@<TRIPOS>BOND
     1    1    2 ar  
     2    1    4 ar  
     3    2    5 ar  
     4    3    6 ar  
     5    3    7 ar  
     6    4    8 ar  
     7    5    9 ar  
     8    6   10 ar  
     9    7   12 ar  
    10    8    9 ar  
    11    8   13 1   
    12    9   14 1   
    13   10   11 ar  
    14   10   13 1   
    15   11   12 ar  
    16   11   14 1   
    17   12   15 1   
    18   13   16 2   
    19   14   17 2   
    20    1   18 1   
    21    2   19 1   
    22    3   20 1   
    23    4   21 1   
    24    5   22 1   
    25    6   23 1   
    26    7   24 1   
    27   15   25 1   
    28   15   26 1   
@<TRIPOS>SUBSTRUCTURE
     1 TMP         1 TEMP              0 ****  ****    0 ROOT
