@<TRIPOS>MOLECULE
2_methylpentan_3_ol
   21    20     1     0     0
SMALL
No Charge or Current Charge


@<TRIPOS>ATOM
      1 C1          3.2780    0.1290   -0.4290 c3        1 MOL     -0.090200
      2 C2         -0.5380    1.5300    1.5080 c3        1 MOL     -0.087000
      3 C3          0.8080    3.2560    2.7130 c3        1 MOL     -0.087000
      4 C4          1.9820    0.8860   -0.1670 c3        1 MOL     -0.108700
      5 C5          0.6960    2.4340    1.4240 c3        1 MOL     -0.085700
      6 C6          2.0050    1.6540    1.1620 c3        1 MOL      0.144500
      7 O1          3.1030    2.5660    1.1730 oh        1 MOL     -0.600600
      8 H1          3.2400   -0.3510   -1.4130 hc        1 MOL      0.036200
      9 H2          3.4430   -0.6540    0.3170 hc        1 MOL      0.036200
     10 H3          4.1380    0.8060   -0.4160 hc        1 MOL      0.036200
     11 H4         -0.7090    1.0000    0.5670 hc        1 MOL      0.035600
     12 H5         -0.4410    0.7870    2.3070 hc        1 MOL      0.035600
     13 H6         -1.4360    2.1240    1.7120 hc        1 MOL      0.035600
     14 H7         -0.0880    3.8690    2.8600 hc        1 MOL      0.035600
     15 H8          1.6680    3.9310    2.6700 hc        1 MOL      0.035600
     16 H9          0.9220    2.6140    3.5930 hc        1 MOL      0.035600
     17 H10         1.8140    1.5850   -0.9950 hc        1 MOL      0.043600
     18 H11         1.1650    0.1560   -0.1710 hc        1 MOL      0.043600
     19 H12         0.5440    3.1380    0.5950 hc        1 MOL      0.049900
     20 H13         2.1570    0.9450    1.9850 h1        1 MOL      0.058300
     21 H14         3.4600    2.5760    0.2720 ho        1 MOL      0.397300
@<TRIPOS>BOND
     1    1    4 1   
     2    2    5 1   
     3    3    5 1   
     4    4    6 1   
     5    5    6 1   
     6    6    7 1   
     7    1    8 1   
     8    1    9 1   
     9    1   10 1   
    10    2   11 1   
    11    2   12 1   
    12    2   13 1   
    13    3   14 1   
    14    3   15 1   
    15    3   16 1   
    16    4   17 1   
    17    4   18 1   
    18    5   19 1   
    19    6   20 1   
    20    7   21 1   
@<TRIPOS>SUBSTRUCTURE
     1 R0_         1 TEMP              0 ****  ****    0 ROOT
