@<TRIPOS>MOLECULE
CUP08007_AM1BCC_v1_0
   38    38     1     0     0
SMALL
No Charge or Current Charge


@<TRIPOS>ATOM
      1 C1          3.3970   -3.8320   -5.0070 ca        1 MOL     -0.116500
      2 C2          2.3790   -2.8900   -4.8870 ca        1 MOL     -0.133800
      3 C3          4.5180   -3.7500   -4.1880 ca        1 MOL     -0.133800
      4 C4          2.4670   -1.8460   -3.9510 ca        1 MOL     -0.057100
      5 C5          4.6460   -2.7210   -3.2390 ca        1 MOL     -0.057100
      6 C6          3.6110   -1.7630   -3.1270 ca        1 MOL      0.023000
      7 C7          4.5410    0.4120   -2.4050 c         1 MOL      0.656700
      8 C8          1.5370    0.3350   -4.8020 c3        1 MOL     -0.086600
      9 C9          5.7430   -3.7050   -1.1950 c3        1 MOL     -0.086600
     10 C10         1.5120   -0.1310    0.5900 c3        1 MOL      0.116600
     11 C11         1.3220   -0.8590   -3.8810 c3        1 MOL     -0.047900
     12 C12         5.8770   -2.7300   -2.3560 c3        1 MOL     -0.047900
     13 C13         5.0240    0.6160   -3.8390 c3        1 MOL     -0.044700
     14 C14         3.1740   -0.9220   -0.8690 c3        1 MOL      0.300900
     15 N1          3.7260   -0.7040   -2.1920 n         1 MOL     -0.425800
     16 O1          4.8550    1.1680   -1.4820 o         1 MOL     -0.579400
     17 O2          2.0010   -0.1250   -0.7420 os        1 MOL     -0.435800
     18 Cl1         5.7240    2.2360   -4.0650 cl        1 MOL     -0.138400
     19 H1          3.3120   -4.6340   -5.7360 ha        1 MOL      0.136800
     20 H2          1.5070   -2.9720   -5.5340 ha        1 MOL      0.137600
     21 H3          5.2980   -4.5030   -4.2890 ha        1 MOL      0.137600
     22 H4          2.4200    0.9110   -4.5070 hc        1 MOL      0.038700
     23 H5          0.6710    1.0030   -4.7620 hc        1 MOL      0.038700
     24 H6          1.6790    0.0210   -5.8410 hc        1 MOL      0.038700
     25 H7          4.8950   -3.4470   -0.5520 hc        1 MOL      0.038700
     26 H8          6.6490   -3.6880   -0.5820 hc        1 MOL      0.038700
     27 H9          5.5950   -4.7310   -1.5490 hc        1 MOL      0.038700
     28 H10         0.6010    0.4720    0.6260 h1        1 MOL      0.039400
     29 H11         2.2480    0.3090    1.2710 h1        1 MOL      0.039400
     30 H12         1.2680   -1.1500    0.9050 h1        1 MOL      0.039400
     31 H13         0.3660   -1.3390   -4.1120 hc        1 MOL      0.049100
     32 H14         1.2220   -0.5060   -2.8470 hc        1 MOL      0.049100
     33 H15         6.7490   -3.0040   -2.9630 hc        1 MOL      0.049100
     34 H16         6.1000   -1.7320   -1.9670 hc        1 MOL      0.049100
     35 H17         4.1930    0.5320   -4.5420 h1        1 MOL      0.092100
     36 H18         5.8020   -0.1120   -4.0790 h1        1 MOL      0.092100
     37 H19         3.9140   -0.6380   -0.1110 h2        1 MOL      0.075200
     38 H20         2.9100   -1.9780   -0.7300 h2        1 MOL      0.075200
@<TRIPOS>BOND
     1    1    2 ar  
     2    1    3 ar  
     3    2    4 ar  
     4    3    5 ar  
     5    4    6 ar  
     6    4   11 1   
     7    5    6 ar  
     8    5   12 1   
     9    6   15 1   
    10    7   13 1   
    11    7   15 1   
    12    7   16 2   
    13    8   11 1   
    14    9   12 1   
    15   10   17 1   
    16   13   18 1   
    17   14   15 1   
    18   14   17 1   
    19    1   19 1   
    20    2   20 1   
    21    3   21 1   
    22    8   22 1   
    23    8   23 1   
    24    8   24 1   
    25    9   25 1   
    26    9   26 1   
    27    9   27 1   
    28   10   28 1   
    29   10   29 1   
    30   10   30 1   
    31   11   31 1   
    32   11   32 1   
    33   12   33 1   
    34   12   34 1   
    35   13   35 1   
    36   13   36 1   
    37   14   37 1   
    38   14   38 1   
@<TRIPOS>SUBSTRUCTURE
     1 R0_         1 TEMP              0 ****  ****    0 ROOT
