@<TRIPOS>MOLECULE
1-chloro-2-phenyl-benzene
   22    23     1     0     0
SMALL
No Charge or Current Charge


@<TRIPOS>ATOM
      1 C1          1.8850   -1.0360   -0.1120 ca        1 MOL     -0.124800
      2 C2          0.8070   -0.4630    0.5610 ca        1 MOL     -0.132300
      3 C3          2.9210   -1.6310    0.6080 ca        1 MOL     -0.131900
      4 C4          1.0760   -2.2470    6.1370 ca        1 MOL     -0.132000
      5 C5          1.6250   -1.2210    6.9060 ca        1 MOL     -0.120100
      6 C6          0.7640   -0.4840    1.9550 ca        1 MOL     -0.108100
      7 C7          2.8780   -1.6520    2.0020 ca        1 MOL     -0.107700
      8 C8          1.1410   -2.1870    4.7450 ca        1 MOL     -0.110100
      9 C9          2.2390   -0.1350    6.2820 ca        1 MOL     -0.128200
     10 C10         1.8000   -1.0790    2.6760 cp        1 MOL     -0.048200
     11 C11         1.7550   -1.1010    4.1220 cp        1 MOL     -0.034800
     12 C12         2.3040   -0.0740    4.8900 ca        1 MOL      0.029800
     13 Cl1         3.0770    1.2960    4.1720 cl        1 MOL     -0.086400
     14 H1          1.9170   -1.0210   -1.1980 ha        1 MOL      0.130400
     15 H2         -0.0010   -0.0020    0.0000 ha        1 MOL      0.132500
     16 H3          3.7600   -2.0790    0.0840 ha        1 MOL      0.133200
     17 H4          0.5980   -3.0930    6.6220 ha        1 MOL      0.136400
     18 H5          1.5750   -1.2680    7.9900 ha        1 MOL      0.136800
     19 H6         -0.0840   -0.0330    2.4660 ha        1 MOL      0.138300
     20 H7          3.6930   -2.1200    2.5500 ha        1 MOL      0.137700
     21 H8          0.7070   -2.9960    4.1620 ha        1 MOL      0.142700
     22 H9          2.6620    0.6560    6.8970 ha        1 MOL      0.146900
@<TRIPOS>BOND
     1    1    2 ar  
     2    1    3 ar  
     3    2    6 ar  
     4    3    7 ar  
     5    4    5 ar  
     6    4    8 ar  
     7    5    9 ar  
     8    6   10 ar  
     9    7   10 ar  
    10    8   11 ar  
    11    9   12 ar  
    12   10   11 1   
    13   11   12 ar  
    14   12   13 1   
    15    1   14 1   
    16    2   15 1   
    17    3   16 1   
    18    4   17 1   
    19    5   18 1   
    20    6   19 1   
    21    7   20 1   
    22    8   21 1   
    23    9   22 1   
@<TRIPOS>SUBSTRUCTURE
     1 MOL         1 TEMP              0 ****  ****    0 ROOT
