@<TRIPOS>MOLECULE
11_difluoroethane
    8     7     1     0     0
SMALL
No Charge or Current Charge


@<TRIPOS>ATOM
      1 C1         -0.2180    0.5510    0.9190 c3        1 MOL     -0.148900
      2 C2          0.4580   -0.0920    2.1030 c3        1 MOL      0.411200
      3 F1          0.2140    0.6400    3.2170 f         1 MOL     -0.253500
      4 F2          1.8010   -0.0870    1.9150 f         1 MOL     -0.253500
      5 H1          0.1430    1.5770    0.7880 hc        1 MOL      0.062500
      6 H2         -0.0000    0.0000    0.0000 hc        1 MOL      0.062500
      7 H3         -1.3010    0.5950    1.0670 hc        1 MOL      0.062500
      8 H4          0.1240   -1.1190    2.2690 h2        1 MOL      0.057100
@<TRIPOS>BOND
     1    1    2 1   
     2    2    3 1   
     3    2    4 1   
     4    1    5 1   
     5    1    6 1   
     6    1    7 1   
     7    2    8 1   
@<TRIPOS>SUBSTRUCTURE
     1 R0_         1 TEMP              0 ****  ****    0 ROOT
