@<TRIPOS>MOLECULE
CUP08027_AM1BCC_v1_0
   35    35     1     0     0
SMALL
No Charge or Current Charge


@<TRIPOS>ATOM
      1 C1          1.0630   -0.4740    0.6120 ca        1 MOL      0.067300
      2 C2          0.5200    0.1530    1.7480 ca        1 MOL     -0.298800
      3 C3          2.1460   -1.3570    0.7360 ca        1 MOL     -0.297100
      4 C4          1.0930   -0.0940    3.0120 ca        1 MOL      0.351800
      5 C5          2.7170   -1.7070    1.9690 ca        1 MOL      0.383600
      6 C6          2.1380   -1.0650    3.0910 ca        1 MOL     -0.331300
      7 C7          6.2410   -2.7400    1.7950 c3        1 MOL     -0.118600
      8 C8          3.6020   -4.9940    1.3450 c3        1 MOL     -0.118600
      9 C9          5.0630   -2.0790    2.4950 c3        1 MOL      0.234900
     10 C10         3.4170   -3.9840    2.4680 c3        1 MOL      0.234900
     11 C11        -0.6810    1.0530    1.5580 c3        1 MOL      0.707500
     12 N1          0.4920    0.4430    4.1690 nh        1 MOL     -0.838400
     13 N2          3.7820   -2.6270    2.0040 nh        1 MOL     -0.731000
     14 N3          2.6820   -1.9030   -0.4970 no        1 MOL      0.328300
     15 N4          2.6420   -1.3770    4.4140 no        1 MOL      0.326200
     16 O1          1.9740   -2.7260   -1.0940 o         1 MOL     -0.203500
     17 O2          3.7590   -1.4420   -0.8980 o         1 MOL     -0.203500
     18 O3          3.3030   -0.4920    4.9800 o         1 MOL     -0.203000
     19 O4          2.3530   -2.4790    4.8990 o         1 MOL     -0.203000
     20 F1         -0.6910    1.6640    0.3400 f         1 MOL     -0.238500
     21 F2         -1.8570    0.3770    1.6450 f         1 MOL     -0.238500
     22 F3         -0.7520    2.0630    2.4720 f         1 MOL     -0.238500
     23 H1          0.6410   -0.2730   -0.3740 ha        1 MOL      0.191600
     24 H2          6.3240   -3.7960    2.0660 hc        1 MOL      0.049400
     25 H3          6.1420   -2.6740    0.7070 hc        1 MOL      0.049400
     26 H4          7.1760   -2.2490    2.0840 hc        1 MOL      0.049400
     27 H5          2.9280   -4.7810    0.5100 hc        1 MOL      0.049400
     28 H6          4.6240   -4.9910    0.9570 hc        1 MOL      0.049400
     29 H7          3.3780   -6.0030    1.7060 hc        1 MOL      0.049400
     30 H8          5.1180   -1.0020    2.2920 h1        1 MOL      0.052700
     31 H9          5.1590   -2.2150    3.5780 h1        1 MOL      0.052700
     32 H10         4.0340   -4.2760    3.3260 h1        1 MOL      0.052700
     33 H11         2.3710   -4.0340    2.7950 h1        1 MOL      0.052700
     34 H12        -0.0230    1.3160    4.0420 hn        1 MOL      0.464400
     35 H13         1.0960    0.5180    4.9900 hn        1 MOL      0.464400
@<TRIPOS>BOND
     1    1    2 ar  
     2    1    3 ar  
     3    2    4 ar  
     4    2   11 1   
     5    3    5 ar  
     6    3   14 1   
     7    4    6 ar  
     8    4   12 1   
     9    5    6 ar  
    10    5   13 1   
    11    6   15 1   
    12    7    9 1   
    13    8   10 1   
    14    9   13 1   
    15   10   13 1   
    16   11   20 1   
    17   11   21 1   
    18   11   22 1   
    19   14   16 1   
    20   14   17 1   
    21   15   18 1   
    22   15   19 1   
    23    1   23 1   
    24    7   24 1   
    25    7   25 1   
    26    7   26 1   
    27    8   27 1   
    28    8   28 1   
    29    8   29 1   
    30    9   30 1   
    31    9   31 1   
    32   10   32 1   
    33   10   33 1   
    34   12   34 1   
    35   12   35 1   
@<TRIPOS>SUBSTRUCTURE
     1 R0_         1 TEMP              0 ****  ****    0 ROOT
