@<TRIPOS>MOLECULE
res
    5     4     1     0     0
SMALL
bcc


@<TRIPOS>ATOM
      1 H1          1.4060    1.5390    0.0110 hc        1 MOL       0.0272
      2 C1          1.0570    0.9330    0.8070 c3        1 MOL      -0.1087
      3 H2          1.2070    1.4500    1.7560 hc        1 MOL       0.0272
      4 H3          0.0050    0.7190    0.6680 hc        1 MOL       0.0272
      5 H4          1.5950   -0.0170    0.8170 hc        1 MOL       0.0272
@<TRIPOS>BOND
     1    1    2 1   
     2    2    3 1   
     3    2    4 1   
     4    2    5 1   
@<TRIPOS>SUBSTRUCTURE
     1 res         1 TEMP              0 ****  ****    0 ROOT
