@<TRIPOS>MOLECULE
CUP08016_AM1BCC_v1_0
   31    32     1     0     0
SMALL
No Charge or Current Charge


@<TRIPOS>ATOM
      1 C1          0.0670   -1.9880    0.9330 ca        1 MOL     -0.158700
      2 C2          0.7720   -3.1970    0.9450 ca        1 MOL     -0.079100
      3 C3          0.4140   -0.9660    0.0340 ca        1 MOL     -0.088800
      4 C4          1.8200   -3.3600    0.0520 ca        1 MOL     -0.143600
      5 C5          2.1620   -2.3550   -0.8360 ca        1 MOL      0.126300
      6 C6          1.4800   -1.1530   -0.8450 ca        1 MOL      0.089700
      7 C7          2.9160    0.5730   -1.3820 c         1 MOL      0.730000
      8 C8          2.6870   -4.5390   -0.1750 c3        1 MOL     -0.053800
      9 C9          3.7400   -3.9160   -1.1210 c3        1 MOL      0.145300
     10 C10         5.0370   -3.5690   -0.3790 c3        1 MOL     -0.097800
     11 C11         4.0460   -4.8480   -2.2950 c3        1 MOL     -0.097800
     12 C12         4.2860    2.4170   -2.2540 c3        1 MOL      0.078300
     13 N1          3.2360    1.4460   -2.3860 n         1 MOL     -0.529100
     14 O1          3.5170    0.4940   -0.3190 o         1 MOL     -0.559000
     15 O2          3.1980   -2.6820   -1.6700 os        1 MOL     -0.311300
     16 O3          1.8000   -0.1550   -1.7580 os        1 MOL     -0.359500
     17 H1         -0.7590   -1.8380    1.6230 ha        1 MOL      0.137100
     18 H2          0.4960   -3.9880    1.6360 ha        1 MOL      0.137200
     19 H3         -0.1410   -0.0330    0.0300 ha        1 MOL      0.148900
     20 H4          3.1270   -4.9270    0.7490 hc        1 MOL      0.065300
     21 H5          2.1090   -5.3300   -0.6630 hc        1 MOL      0.065300
     22 H6          5.7460   -3.0710   -1.0500 hc        1 MOL      0.048700
     23 H7          4.8480   -2.8710    0.4440 hc        1 MOL      0.048700
     24 H8          5.5160   -4.4650    0.0310 hc        1 MOL      0.048700
     25 H9          4.7630   -4.3860   -2.9830 hc        1 MOL      0.048700
     26 H10         4.4550   -5.8040   -1.9530 hc        1 MOL      0.048700
     27 H11         3.1410   -5.0450   -2.8810 hc        1 MOL      0.048700
     28 H12         3.8820    3.3010   -1.7530 h1        1 MOL      0.047800
     29 H13         4.6370    2.6890   -3.2520 h1        1 MOL      0.047800
     30 H14         5.1140    2.0130   -1.6650 h1        1 MOL      0.047800
     31 H15         2.6030    1.4760   -3.1720 hn        1 MOL      0.319500
@<TRIPOS>BOND
     1    1    2 ar  
     2    1    3 ar  
     3    2    4 ar  
     4    3    6 ar  
     5    4    5 ar  
     6    4    8 1   
     7    5    6 ar  
     8    5   15 1   
     9    6   16 1   
    10    7   13 1   
    11    7   14 2   
    12    7   16 1   
    13    8    9 1   
    14    9   10 1   
    15    9   11 1   
    16    9   15 1   
    17   12   13 1   
    18    1   17 1   
    19    2   18 1   
    20    3   19 1   
    21    8   20 1   
    22    8   21 1   
    23   10   22 1   
    24   10   23 1   
    25   10   24 1   
    26   11   25 1   
    27   11   26 1   
    28   11   27 1   
    29   12   28 1   
    30   12   29 1   
    31   12   30 1   
    32   13   31 1   
@<TRIPOS>SUBSTRUCTURE
     1 R0_         1 TEMP              0 ****  ****    0 ROOT
