@<TRIPOS>MOLECULE
n_pentylamine
   19    18     1     0     0
SMALL
No Charge or Current Charge


@<TRIPOS>ATOM
      1 C1          0.0370   -0.7160    0.8640 c3        1 MOL     -0.089800
      2 C2          1.2740   -0.4300    1.7010 c3        1 MOL     -0.078300
      3 C3          2.5560   -0.6360    0.8950 c3        1 MOL     -0.076100
      4 C4          3.7990   -0.3800    1.7500 c3        1 MOL     -0.078700
      5 C5          5.0770   -0.5510    0.9310 c3        1 MOL      0.160900
      6 N1          6.2490   -0.3240    1.7680 n3        1 MOL     -0.916500
      7 H1         -0.8680   -0.5620    1.4600 hc        1 MOL      0.031600
      8 H2         -0.0110   -0.0510   -0.0040 hc        1 MOL      0.031600
      9 H3          0.0370   -1.7500    0.5060 hc        1 MOL      0.031600
     10 H4          1.2750   -1.0890    2.5770 hc        1 MOL      0.037500
     11 H5          1.2280    0.6010    2.0710 hc        1 MOL      0.037500
     12 H6          2.5590    0.0400    0.0310 hc        1 MOL      0.040800
     13 H7          2.5840   -1.6600    0.5030 hc        1 MOL      0.040800
     14 H8          3.8070   -1.0740    2.6000 hc        1 MOL      0.043300
     15 H9          3.7550    0.6360    2.1630 hc        1 MOL      0.043300
     16 H10         5.0880    0.1530    0.0920 h1        1 MOL      0.022700
     17 H11         5.1270   -1.5640    0.5170 h1        1 MOL      0.022700
     18 H12         5.9580    0.1260    2.6330 hn        1 MOL      0.347600
     19 H13         6.8720    0.3300    1.2990 hn        1 MOL      0.347600
@<TRIPOS>BOND
     1    1    2 1   
     2    2    3 1   
     3    3    4 1   
     4    4    5 1   
     5    5    6 1   
     6    1    7 1   
     7    1    8 1   
     8    1    9 1   
     9    2   10 1   
    10    2   11 1   
    11    3   12 1   
    12    3   13 1   
    13    4   14 1   
    14    4   15 1   
    15    5   16 1   
    16    5   17 1   
    17    6   18 1   
    18    6   19 1   
@<TRIPOS>SUBSTRUCTURE
     1 R0_         1 TEMP              0 ****  ****    0 ROOT
