@<TRIPOS>MOLECULE
12_dichloropropane
   11    10     1     0     0
SMALL
No Charge or Current Charge


@<TRIPOS>ATOM
      1 C1          0.8720   -0.5290    0.4010 c3        1 MOL     -0.103700
      2 C2          0.2160   -0.2400    2.8570 c3        1 MOL      0.025200
      3 C3          1.2560    0.0260    1.7670 c3        1 MOL      0.048400
      4 Cl1        -0.1000   -1.9710    3.1370 cl        1 MOL     -0.176400
      5 Cl2         2.8550   -0.6170    2.2520 cl        1 MOL     -0.186600
      6 H1          0.6220   -1.5940    0.4400 hc        1 MOL      0.053300
      7 H2          0.0000    0.0000    0.0000 hc        1 MOL      0.053300
      8 H3          1.6930   -0.3990   -0.3130 hc        1 MOL      0.053300
      9 H4          0.5510    0.1820    3.8090 h1        1 MOL      0.076000
     10 H5         -0.7400    0.2300    2.6040 h1        1 MOL      0.076000
     11 H6          1.3860    1.1100    1.6750 h1        1 MOL      0.081100
@<TRIPOS>BOND
     1    1    3 1   
     2    2    3 1   
     3    2    4 1   
     4    3    5 1   
     5    1    6 1   
     6    1    7 1   
     7    1    8 1   
     8    2    9 1   
     9    2   10 1   
    10    3   11 1   
@<TRIPOS>SUBSTRUCTURE
     1 R0_         1 TEMP              0 ****  ****    0 ROOT
