@<TRIPOS>MOLECULE
ethylbenzene
   18    18     1     0     0
SMALL
No Charge or Current Charge


@<TRIPOS>ATOM
      1 C1          1.8850   -1.0380   -0.1090 ca        1 MOL     -0.133400
      2 C2          0.8180   -0.4410    0.5630 ca        1 MOL     -0.128200
      3 C3          2.9350   -1.6040    0.6140 ca        1 MOL     -0.128200
      4 C4          0.8010   -0.4100    1.9570 ca        1 MOL     -0.127800
      5 C5          2.9180   -1.5730    2.0080 ca        1 MOL     -0.127800
      6 C6          1.8510   -0.9770    2.6800 ca        1 MOL     -0.067600
      7 C7          2.5050    0.3060    4.7320 c3        1 MOL     -0.086300
      8 C8          1.8330   -0.9440    4.1710 c3        1 MOL     -0.046100
      9 H1          1.8980   -1.0610   -1.1950 ha        1 MOL      0.129900
     10 H2          0.0000    0.0000   -0.0000 ha        1 MOL      0.129700
     11 H3          3.7650   -2.0680    0.0910 ha        1 MOL      0.129700
     12 H4         -0.0350    0.0570    2.4720 ha        1 MOL      0.130300
     13 H5          3.7400   -2.0170    2.5630 ha        1 MOL      0.130300
     14 H6          3.5540    0.3620    4.4210 hc        1 MOL      0.035100
     15 H7          2.4760    0.3040    5.8260 hc        1 MOL      0.035100
     16 H8          2.0030    1.2140    4.3820 hc        1 MOL      0.035100
     17 H9          0.7970   -0.9930    4.5440 hc        1 MOL      0.045100
     18 H10         2.3330   -1.8360    4.5810 hc        1 MOL      0.045100
@<TRIPOS>BOND
     1    1    2 ar  
     2    1    3 ar  
     3    2    4 ar  
     4    3    5 ar  
     5    4    6 ar  
     6    5    6 ar  
     7    6    8 1   
     8    7    8 1   
     9    1    9 1   
    10    2   10 1   
    11    3   11 1   
    12    4   12 1   
    13    5   13 1   
    14    7   14 1   
    15    7   15 1   
    16    7   16 1   
    17    8   17 1   
    18    8   18 1   
@<TRIPOS>SUBSTRUCTURE
     1 R0_         1 TEMP              0 ****  ****    0 ROOT
