@<TRIPOS>MOLECULE
1,2,3,4-tetrachlorodibenzo-p-dioxin
   22    24     1     0     0
SMALL
No Charge or Current Charge


@<TRIPOS>ATOM
      1 C1         -1.8580    0.7400    0.8000 ca        1 MOL     -0.123400
      2 C2         -1.0040   -0.2570    0.3260 ca        1 MOL     -0.123400
      3 C3         -3.1490    0.4150    1.2200 ca        1 MOL     -0.109100
      4 C4         -1.4370   -1.5820    0.2690 ca        1 MOL     -0.109000
      5 C5         -3.5800   -0.9100    1.1630 ca        1 MOL      0.058600
      6 C6         -2.7270   -1.9050    0.6890 ca        1 MOL      0.058400
      7 C7         -5.2390   -2.4980    1.5120 ca        1 MOL      0.085500
      8 C8         -4.3860   -3.4940    1.0380 ca        1 MOL      0.085700
      9 C9         -6.5290   -2.8210    1.9320 ca        1 MOL      0.027100
     10 C10        -4.8170   -4.8180    0.9820 ca        1 MOL      0.027100
     11 C11        -6.9620   -4.1460    1.8750 ca        1 MOL      0.019800
     12 C12        -6.1070   -5.1430    1.4010 ca        1 MOL      0.019800
     13 O1         -4.8560   -1.1830    1.5850 os        1 MOL     -0.206800
     14 O2         -3.1090   -3.2200    0.6160 os        1 MOL     -0.207000
     15 Cl1        -7.5650   -1.5540    2.5150 cl        1 MOL     -0.023900
     16 Cl2        -3.7240   -6.0320    0.3870 cl        1 MOL     -0.023900
     17 Cl3        -8.5730   -4.5520    2.3980 cl        1 MOL     -0.031300
     18 Cl4        -6.6450   -6.7990    1.3310 cl        1 MOL     -0.031100
     19 H1         -1.5180    1.7700    0.8430 ha        1 MOL      0.143600
     20 H2          0.0000   -0.0000    0.0000 ha        1 MOL      0.143700
     21 H3         -3.8080    1.1960    1.5870 ha        1 MOL      0.159800
     22 H4         -0.7660   -2.3530   -0.1000 ha        1 MOL      0.159700
@<TRIPOS>BOND
     1    1    2 ar  
     2    1    3 ar  
     3    2    4 ar  
     4    3    5 ar  
     5    4    6 ar  
     6    5    6 ar  
     7    5   13 ar  
     8    6   14 ar  
     9    7    8 ar  
    10    7    9 ar  
    11    7   13 ar  
    12    8   10 ar  
    13    8   14 ar  
    14    9   11 ar  
    15    9   15 1   
    16   10   12 ar  
    17   10   16 1   
    18   11   12 ar  
    19   11   17 1   
    20   12   18 1   
    21    1   19 1   
    22    2   20 1   
    23    3   21 1   
    24    4   22 1   
@<TRIPOS>SUBSTRUCTURE
     1 MOL         1 TEMP              0 ****  ****    0 ROOT
