@<TRIPOS>MOLECULE
CUP08005_AM1BCC_v1_0
   17    16     1     0     0
SMALL
No Charge or Current Charge


@<TRIPOS>ATOM
      1 C1          0.9770   -0.3460   -0.2660 c3        1 MOL     -0.092300
      2 C2          1.1730    1.1790   -2.2500 c3        1 MOL     -0.092300
      3 C3          1.9920    1.9610   -0.0020 c3        1 MOL      0.135900
      4 C4          1.8130    0.7500   -0.9310 c3        1 MOL     -0.069100
      5 N1          2.9000    2.6010    2.0840 no        1 MOL      0.377100
      6 O1          3.5070    2.2440    3.0920 o         1 MOL     -0.185300
      7 O2          2.4600    3.7100    1.7780 o         1 MOL     -0.185300
      8 O3          2.7020    1.5460    1.1620 os        1 MOL     -0.350800
      9 H1         -0.0210    0.0210   -0.0050 hc        1 MOL      0.042400
     10 H2          1.4560   -0.7080    0.6500 hc        1 MOL      0.042400
     11 H3          0.8570   -1.2030   -0.9370 hc        1 MOL      0.042400
     12 H4          0.1760    1.6030   -2.0890 hc        1 MOL      0.042400
     13 H5          1.0720    0.3250   -2.9290 hc        1 MOL      0.042400
     14 H6          1.7860    1.9340   -2.7530 hc        1 MOL      0.042400
     15 H7          2.5670    2.7330   -0.5280 h1        1 MOL      0.067500
     16 H8          1.0070    2.3600    0.2740 h1        1 MOL      0.067500
     17 H9          2.8030    0.3250   -1.1430 hc        1 MOL      0.072400
@<TRIPOS>BOND
     1    1    4 1   
     2    2    4 1   
     3    3    4 1   
     4    3    8 1   
     5    5    6 1   
     6    5    7 1   
     7    5    8 1   
     8    1    9 1   
     9    1   10 1   
    10    1   11 1   
    11    2   12 1   
    12    2   13 1   
    13    2   14 1   
    14    3   15 1   
    15    3   16 1   
    16    4   17 1   
@<TRIPOS>SUBSTRUCTURE
     1 R0_         1 TEMP              0 ****  ****    0 ROOT
