@<TRIPOS>MOLECULE
pentanenitrile
   15    14     1     0     0
SMALL
No Charge or Current Charge


@<TRIPOS>ATOM
      1 C1          0.7260    2.8960    5.1050 c1        1 MOL      0.217600
      2 C2          0.1480    0.9340    0.5520 c3        1 MOL     -0.092100
      3 C3          0.5470    1.6540    4.3410 c3        1 MOL     -0.029000
      4 C4          0.2520    0.6530    2.0420 c3        1 MOL     -0.080500
      5 C5          0.4020    1.9430    2.8480 c3        1 MOL     -0.074300
      6 N1          0.8680    3.8760    5.7100 n1        1 MOL     -0.377200
      7 H1          1.0450    1.4450    0.1860 hc        1 MOL      0.035000
      8 H2          0.0400   -0.0020   -0.0040 hc        1 MOL      0.035000
      9 H3         -0.7200    1.5630    0.3310 hc        1 MOL      0.035000
     10 H4         -0.3420    1.1270    4.7060 hc        1 MOL      0.072100
     11 H5          1.4050    0.9940    4.5110 hc        1 MOL      0.072100
     12 H6         -0.6430    0.1110    2.3700 hc        1 MOL      0.042900
     13 H7          1.1120   -0.0020    2.2250 hc        1 MOL      0.042900
     14 H8         -0.4710    2.5870    2.6770 hc        1 MOL      0.050200
     15 H9          1.2780    2.5000    2.4910 hc        1 MOL      0.050200
@<TRIPOS>BOND
     1    1    3 1   
     2    1    6 3   
     3    2    4 1   
     4    3    5 1   
     5    4    5 1   
     6    2    7 1   
     7    2    8 1   
     8    2    9 1   
     9    3   10 1   
    10    3   11 1   
    11    4   12 1   
    12    4   13 1   
    13    5   14 1   
    14    5   15 1   
@<TRIPOS>SUBSTRUCTURE
     1 R0_         1 TEMP              0 ****  ****    0 ROOT
