@<TRIPOS>MOLECULE
oct_1_ene
   24    23     1     0     0
SMALL
No Charge or Current Charge


@<TRIPOS>ATOM
      1 C1          1.6150    3.7430   -1.4010 c2        1 MOL     -0.224600
      2 C2          0.7150    3.0150   -0.7310 c2        1 MOL     -0.164200
      3 C3         -4.3230    5.0660    4.5410 c3        1 MOL     -0.089600
      4 C4         -0.7000    3.4500   -0.4850 c3        1 MOL     -0.049200
      5 C5         -4.0640    4.8400    3.0600 c3        1 MOL     -0.078000
      6 C6         -0.9900    3.5680    1.0130 c3        1 MOL     -0.072800
      7 C7         -2.6690    4.2640    2.8160 c3        1 MOL     -0.076700
      8 C8         -2.4020    4.0760    1.3210 c3        1 MOL     -0.077100
      9 H1          2.6290    3.3900   -1.5560 ha        1 MOL      0.110400
     10 H2          1.3460    4.7120   -1.8060 ha        1 MOL      0.110400
     11 H3          1.0130    2.0430   -0.3460 ha        1 MOL      0.117500
     12 H4         -4.2580    4.1260    5.0980 hc        1 MOL      0.031400
     13 H5         -3.5970    5.7670    4.9650 hc        1 MOL      0.031400
     14 H6         -5.3250    5.4810    4.6910 hc        1 MOL      0.031400
     15 H7         -1.3640    2.7090   -0.9440 hc        1 MOL      0.044600
     16 H8         -0.9020    4.4090   -0.9760 hc        1 MOL      0.044600
     17 H9         -4.8230    4.1570    2.6620 hc        1 MOL      0.037400
     18 H10        -4.1730    5.7920    2.5270 hc        1 MOL      0.037400
     19 H11        -0.8370    2.5970    1.5020 hc        1 MOL      0.040200
     20 H12        -0.2720    4.2630    1.4670 hc        1 MOL      0.040200
     21 H13        -2.5820    3.3050    3.3370 hc        1 MOL      0.038200
     22 H14        -1.9150    4.9360    3.2430 hc        1 MOL      0.038200
     23 H15        -3.1410    3.3870    0.8960 hc        1 MOL      0.039200
     24 H16        -2.5370    5.0370    0.8090 hc        1 MOL      0.039200
@<TRIPOS>BOND
     1    1    2 2   
     2    2    4 1   
     3    3    5 1   
     4    4    6 1   
     5    5    7 1   
     6    6    8 1   
     7    7    8 1   
     8    1    9 1   
     9    1   10 1   
    10    2   11 1   
    11    3   12 1   
    12    3   13 1   
    13    3   14 1   
    14    4   15 1   
    15    4   16 1   
    16    5   17 1   
    17    5   18 1   
    18    6   19 1   
    19    6   20 1   
    20    7   21 1   
    21    7   22 1   
    22    8   23 1   
    23    8   24 1   
@<TRIPOS>SUBSTRUCTURE
     1 R0_         1 TEMP              0 ****  ****    0 ROOT
