@<TRIPOS>MOLECULE
di_isopropyl_sulfide
   21    20     1     0     0
SMALL
No Charge or Current Charge


@<TRIPOS>ATOM
      1 C1          1.3020    0.5620    2.8860 c3        1 MOL     -0.084200
      2 C2          0.6190   -0.0240    0.5340 c3        1 MOL     -0.084200
      3 C3          2.9490    3.5540    1.8140 c3        1 MOL     -0.084200
      4 C4          0.9950    4.9990    2.4750 c3        1 MOL     -0.084200
      5 C5          1.2990    1.0060    1.4280 c3        1 MOL      0.020400
      6 C6          1.5250    3.5750    2.3570 c3        1 MOL      0.020400
      7 S1          0.4460    2.6110    1.2760 ss        1 MOL     -0.338400
      8 H1          1.8370   -0.3880    2.9940 hc        1 MOL      0.041800
      9 H2          1.8070    1.2950    3.5250 hc        1 MOL      0.041800
     10 H3          0.2860    0.4120    3.2700 hc        1 MOL      0.041800
     11 H4          1.1410   -0.9860    0.5960 hc        1 MOL      0.041800
     12 H5          0.6330    0.2870   -0.5160 hc        1 MOL      0.041800
     13 H6         -0.4230   -0.1960    0.8280 hc        1 MOL      0.041800
     14 H7          3.6180    4.1120    2.4790 hc        1 MOL      0.041800
     15 H8          3.3350    2.5310    1.7470 hc        1 MOL      0.041800
     16 H9          3.0140    4.0130    0.8210 hc        1 MOL      0.041800
     17 H10         1.6260    5.5850    3.1530 hc        1 MOL      0.041800
     18 H11        -0.0220    5.0140    2.8820 hc        1 MOL      0.041800
     19 H12         0.9860    5.5130    1.5070 hc        1 MOL      0.041800
     20 H13         2.3320    1.1470    1.0930 h1        1 MOL      0.066500
     21 H14         1.5100    3.1030    3.3450 h1        1 MOL      0.066500
@<TRIPOS>BOND
     1    1    5 1   
     2    2    5 1   
     3    3    6 1   
     4    4    6 1   
     5    5    7 1   
     6    6    7 1   
     7    1    8 1   
     8    1    9 1   
     9    1   10 1   
    10    2   11 1   
    11    2   12 1   
    12    2   13 1   
    13    3   14 1   
    14    3   15 1   
    15    3   16 1   
    16    4   17 1   
    17    4   18 1   
    18    4   19 1   
    19    5   20 1   
    20    6   21 1   
@<TRIPOS>SUBSTRUCTURE
     1 R0_         1 TEMP              0 ****  ****    0 ROOT
