@<TRIPOS>MOLECULE
isopropyl_formate
   14    13     1     0     0
SMALL
No Charge or Current Charge


@<TRIPOS>ATOM
      1 C1          0.9640    3.0980    2.2210 c         1 MOL      0.628100
      2 C2          1.0770    0.0500    0.1960 c3        1 MOL     -0.116400
      3 C3          2.8430    1.0380    1.6980 c3        1 MOL     -0.116400
      4 C4          1.3530    0.9190    1.4130 c3        1 MOL      0.147500
      5 O1          1.0210    2.8430    3.4140 o         1 MOL     -0.516800
      6 O2          0.8120    2.2180    1.1940 os        1 MOL     -0.439800
      7 H1          1.0300    4.1160    1.8070 h5        1 MOL      0.054100
      8 H2          1.4530   -0.9670    0.3400 hc        1 MOL      0.049300
      9 H3          0.0000    0.0000    0.0000 hc        1 MOL      0.049300
     10 H4          1.5400    0.4710   -0.7030 hc        1 MOL      0.049300
     11 H5          3.2880    0.0590    1.8990 hc        1 MOL      0.049300
     12 H6          3.0140    1.6860    2.5640 hc        1 MOL      0.049300
     13 H7          3.3700    1.4960    0.8530 hc        1 MOL      0.049300
     14 H8          0.8470    0.4960    2.2870 h1        1 MOL      0.064000
@<TRIPOS>BOND
     1    1    5 2   
     2    1    6 1   
     3    2    4 1   
     4    3    4 1   
     5    4    6 1   
     6    1    7 1   
     7    2    8 1   
     8    2    9 1   
     9    2   10 1   
    10    3   11 1   
    11    3   12 1   
    12    3   13 1   
    13    4   14 1   
@<TRIPOS>SUBSTRUCTURE
     1 R0_         1 TEMP              0 ****  ****    0 ROOT
