@<TRIPOS>MOLECULE
cyclohexane
   18    18     1     0     0
SMALL
No Charge or Current Charge


@<TRIPOS>ATOM
      1 C1          0.1110   -1.0860    0.1130 c3        1 MOL     -0.073800
      2 C2          1.2040   -1.3800    1.1360 c3        1 MOL     -0.073800
      3 C3         -1.2280   -1.6910    0.5290 c3        1 MOL     -0.073800
      4 C4          0.7970   -0.9350    2.5390 c3        1 MOL     -0.073800
      5 C5         -1.6340   -1.2450    1.9310 c3        1 MOL     -0.073800
      6 C6         -0.5410   -1.5400    2.9550 c3        1 MOL     -0.073800
      7 H1          0.0000   -0.0000   -0.0000 hc        1 MOL      0.036900
      8 H2          0.4050   -1.4800   -0.8660 hc        1 MOL      0.036900
      9 H3          1.4170   -2.4560    1.1430 hc        1 MOL      0.036900
     10 H4          2.1300   -0.8730    0.8430 hc        1 MOL      0.036900
     11 H5         -2.0030   -1.4010   -0.1890 hc        1 MOL      0.036900
     12 H6         -1.1570   -2.7850    0.5010 hc        1 MOL      0.036900
     13 H7          1.5720   -1.2240    3.2570 hc        1 MOL      0.036900
     14 H8          0.7270    0.1600    2.5670 hc        1 MOL      0.036900
     15 H9         -1.8470   -0.1690    1.9250 hc        1 MOL      0.036900
     16 H10        -2.5610   -1.7520    2.2250 hc        1 MOL      0.036900
     17 H11        -0.4310   -2.6250    3.0680 hc        1 MOL      0.036900
     18 H12        -0.8360   -1.1450    3.9340 hc        1 MOL      0.036900
@<TRIPOS>BOND
     1    1    2 1   
     2    1    3 1   
     3    2    4 1   
     4    3    5 1   
     5    4    6 1   
     6    5    6 1   
     7    1    7 1   
     8    1    8 1   
     9    2    9 1   
    10    2   10 1   
    11    3   11 1   
    12    3   12 1   
    13    4   13 1   
    14    4   14 1   
    15    5   15 1   
    16    5   16 1   
    17    6   17 1   
    18    6   18 1   
@<TRIPOS>SUBSTRUCTURE
     1 R0_         1 TEMP              0 ****  ****    0 ROOT
