@<TRIPOS>MOLECULE
ethyl_acetate
   14    13     1     0     0
SMALL
No Charge or Current Charge


@<TRIPOS>ATOM
      1 C1         -2.4440   -0.2300   -0.7730 c         1 MOL      0.629300
      2 C2         -1.6440   -0.2460    0.4940 c3        1 MOL     -0.155900
      3 C3         -1.8910    1.8640   -3.7230 c3        1 MOL     -0.109100
      4 C4         -2.5900    0.8100   -2.8900 c3        1 MOL      0.139600
      5 O1         -3.4150   -0.9440   -0.9800 o         1 MOL     -0.530400
      6 O2         -1.9190    0.6900   -1.6320 os        1 MOL     -0.441600
      7 H1         -1.6900    0.7350    0.9750 hc        1 MOL      0.073800
      8 H2         -0.6090   -0.5200    0.2760 hc        1 MOL      0.073800
      9 H3         -2.0630   -0.9890    1.1780 hc        1 MOL      0.073800
     10 H4         -2.3800    1.9810   -4.6940 hc        1 MOL      0.048100
     11 H5         -1.8960    2.8300   -3.2060 hc        1 MOL      0.048100
     12 H6         -0.8430    1.5950   -3.8850 hc        1 MOL      0.048100
     13 H7         -2.5640   -0.1590   -3.3970 h1        1 MOL      0.051300
     14 H8         -3.6310    1.0920   -2.7080 h1        1 MOL      0.051300
@<TRIPOS>BOND
     1    1    2 1   
     2    1    5 2   
     3    1    6 1   
     4    3    4 1   
     5    4    6 1   
     6    2    7 1   
     7    2    8 1   
     8    2    9 1   
     9    3   10 1   
    10    3   11 1   
    11    3   12 1   
    12    4   13 1   
    13    4   14 1   
@<TRIPOS>SUBSTRUCTURE
     1 R0_         1 TEMP              0 ****  ****    0 ROOT
