@<TRIPOS>MOLECULE
hexan_3_ol
   21    20     1     0     0
SMALL
No Charge or Current Charge


@<TRIPOS>ATOM
      1 C1         -0.2380   -2.2910    1.2070 c3        1 MOL     -0.090400
      2 C2         -0.3780    0.1970    6.6090 c3        1 MOL     -0.089200
      3 C3          0.0920   -1.8670    2.6300 c3        1 MOL     -0.077700
      4 C4         -0.6280   -0.2990    5.1950 c3        1 MOL     -0.076400
      5 C5          0.1530   -0.3410    2.7580 c3        1 MOL     -0.108300
      6 C6          0.4590    0.1090    4.1930 c3        1 MOL      0.143300
      7 O1          0.5620    1.5340    4.2070 oh        1 MOL     -0.602900
      8 H1         -1.2100   -1.8960    0.8950 hc        1 MOL      0.032700
      9 H2          0.5210   -1.9330    0.5050 hc        1 MOL      0.032700
     10 H3         -0.2770   -3.3830    1.1370 hc        1 MOL      0.032700
     11 H4         -0.2290    1.2820    6.6250 hc        1 MOL      0.035400
     12 H5         -1.2390   -0.0350    7.2450 hc        1 MOL      0.035400
     13 H6          0.4980   -0.2810    7.0550 hc        1 MOL      0.035400
     14 H7         -0.6690   -2.2660    3.3090 hc        1 MOL      0.041200
     15 H8          1.0510   -2.3110    2.9190 hc        1 MOL      0.041200
     16 H9         -1.5940    0.0920    4.8500 hc        1 MOL      0.047800
     17 H10        -0.7400   -1.3900    5.1990 hc        1 MOL      0.047800
     18 H11         0.9330    0.0350    2.0840 hc        1 MOL      0.046400
     19 H12        -0.8020    0.0800    2.4270 hc        1 MOL      0.046400
     20 H13         1.4270   -0.2960    4.5080 h1        1 MOL      0.028100
     21 H14         1.0360    1.7810    3.3990 ho        1 MOL      0.398500
@<TRIPOS>BOND
     1    1    3 1   
     2    2    4 1   
     3    3    5 1   
     4    4    6 1   
     5    5    6 1   
     6    6    7 1   
     7    1    8 1   
     8    1    9 1   
     9    1   10 1   
    10    2   11 1   
    11    2   12 1   
    12    2   13 1   
    13    3   14 1   
    14    3   15 1   
    15    4   16 1   
    16    4   17 1   
    17    5   18 1   
    18    5   19 1   
    19    6   20 1   
    20    7   21 1   
@<TRIPOS>SUBSTRUCTURE
     1 R0_         1 TEMP              0 ****  ****    0 ROOT
