@<TRIPOS>MOLECULE
CUP08041_AM1BCC_v1_0
   13    12     1     0     0
SMALL
No Charge or Current Charge


@<TRIPOS>ATOM
      1 C1         -1.6930    1.0840   -0.4790 c         1 MOL      0.559700
      2 C2         -0.4210    0.3310   -0.7700 c3        1 MOL     -0.199400
      3 C3         -2.8450    0.2610    0.0720 c3        1 MOL      0.021100
      4 N1         -5.0690    0.3840    0.8090 no        1 MOL      0.374800
      5 O1         -1.7730    2.2950   -0.6840 o         1 MOL     -0.472800
      6 O2         -4.9180   -0.8270    0.9900 o         1 MOL     -0.176300
      7 O3         -6.0510    1.0940    1.0080 o         1 MOL     -0.176300
      8 O4         -3.9660    1.0970    0.2950 os        1 MOL     -0.322300
      9 H1         -0.6150   -0.4410   -1.5190 hc        1 MOL      0.072100
     10 H2          0.3350    1.0190   -1.1590 hc        1 MOL      0.072100
     11 H3         -0.0450   -0.1220    0.1510 hc        1 MOL      0.072100
     12 H4         -2.5040   -0.1870    1.0130 h1        1 MOL      0.087700
     13 H5         -3.0810   -0.5080   -0.6730 h1        1 MOL      0.087700
@<TRIPOS>BOND
     1    1    2 1   
     2    1    3 1   
     3    1    5 2   
     4    3    8 1   
     5    4    6 1   
     6    4    7 1   
     7    4    8 1   
     8    2    9 1   
     9    2   10 1   
    10    2   11 1   
    11    3   12 1   
    12    3   13 1   
@<TRIPOS>SUBSTRUCTURE
     1 R0_         1 TEMP              0 ****  ****    0 ROOT
