@<TRIPOS>MOLECULE
SAMPL4_020
   26    27     1     0     0
SMALL
bcc


@<TRIPOS>ATOM
      1 C1          4.8470    0.6380    6.4600 ca        1 MOL     -0.127000
      2 C2          1.6970   -1.2030   -0.1610 ca        1 MOL     -0.127000
      3 C3          5.1380   -0.4100    5.5870 ca        1 MOL     -0.133000
      4 C4          3.5410    1.1150    6.5670 ca        1 MOL     -0.133000
      5 C5          1.7310    0.0210    0.5070 ca        1 MOL     -0.133000
      6 C6          1.6820   -2.3940    0.5660 ca        1 MOL     -0.133000
      7 C7          4.1220   -0.9820    4.8210 ca        1 MOL     -0.117000
      8 C8          2.5250    0.5430    5.8010 ca        1 MOL     -0.117000
      9 C9          1.7500    0.0540    1.9010 ca        1 MOL     -0.117000
     10 C10         1.7010   -2.3600    1.9600 ca        1 MOL     -0.117000
     11 C11         2.8150   -0.5050    4.9280 ca        1 MOL     -0.055800
     12 C12         1.7350   -1.1360    2.6280 ca        1 MOL     -0.055800
     13 C13         0.6930   -1.6770    4.7550 c2        1 MOL     -0.201000
     14 C14         1.7560   -1.1010    4.1290 ce        1 MOL     -0.009400
     15 H1          5.6380    1.0830    7.0570 ha        1 MOL      0.131000
     16 H2          1.6810   -1.2290   -1.2460 ha        1 MOL      0.131000
     17 H3          6.1550   -0.7820    5.5050 ha        1 MOL      0.131500
     18 H4          3.3140    1.9310    7.2470 ha        1 MOL      0.131500
     19 H5          1.7420    0.9480   -0.0580 ha        1 MOL      0.131500
     20 H6          1.6540   -3.3470    0.0460 ha        1 MOL      0.131500
     21 H7          4.3640   -1.7980    4.1450 ha        1 MOL      0.137500
     22 H8          1.5110    0.9260    5.8950 ha        1 MOL      0.137500
     23 H9          1.7770    1.0160    2.4080 ha        1 MOL      0.137500
     24 H10         1.6880   -3.2970    2.5120 ha        1 MOL      0.137500
     25 H11        -0.1140   -2.1290    4.1860 ha        1 MOL      0.119000
     26 H12         0.5890   -1.7170    5.8360 ha        1 MOL      0.119000
@<TRIPOS>BOND
     1    1    3 ar  
     2    1    4 ar  
     3    2    5 ar  
     4    2    6 ar  
     5    3    7 ar  
     6    4    8 ar  
     7    5    9 ar  
     8    6   10 ar  
     9    7   11 ar  
    10    8   11 ar  
    11    9   12 ar  
    12   10   12 ar  
    13   11   14 1   
    14   12   14 1   
    15   13   14 2   
    16    1   15 1   
    17    2   16 1   
    18    3   17 1   
    19    4   18 1   
    20    5   19 1   
    21    6   20 1   
    22    7   21 1   
    23    8   22 1   
    24    9   23 1   
    25   10   24 1   
    26   13   25 1   
    27   13   26 1   
@<TRIPOS>SUBSTRUCTURE
     1 TMP         1 TEMP              0 ****  ****    0 ROOT
