@<TRIPOS>MOLECULE
SAMPL4_002
   34    33     1     0     0
SMALL
bcc


@<TRIPOS>ATOM
      1 C1         -1.4380   -3.4940   -1.9890 c2        1 MOL     -0.212000
      2 C2         -0.2940   -2.8050   -1.9010 c2        1 MOL     -0.172200
      3 C3          1.3300   -1.1850    1.8660 c2        1 MOL     -0.176200
      4 C4          0.7350   -1.7880    2.9120 c2        1 MOL     -0.124400
      5 C5          1.0880   -1.2560   -3.7880 c         1 MOL      0.637100
      6 C6          0.8440   -1.3390    4.3420 c3        1 MOL     -0.057400
      7 C7         -0.1070   -3.0190    2.7070 c3        1 MOL     -0.057400
      8 C8          2.3970   -0.8320   -4.3820 c3        1 MOL     -0.153100
      9 C9         -1.2400   -0.4710   -2.4130 c3        1 MOL     -0.119100
     10 C10         1.2590   -1.5830    0.4170 c3        1 MOL     -0.045200
     11 C11         0.0760   -0.9050   -0.2820 c3        1 MOL     -0.064400
     12 C12        -0.1290   -1.3050   -1.7630 c3        1 MOL      0.203000
     13 O1          0.1880   -1.7890   -4.4230 o         1 MOL     -0.545000
     14 O2          1.0770   -0.9510   -2.4620 os        1 MOL     -0.444900
     15 H1         -1.4630   -4.5720   -2.0860 ha        1 MOL      0.113500
     16 H2         -2.3900   -2.9730   -1.9620 ha        1 MOL      0.113500
     17 H3          0.6300   -3.3810   -1.9330 ha        1 MOL      0.138000
     18 H4          1.9540   -0.3130    2.0600 ha        1 MOL      0.120000
     19 H5          0.0450   -0.6270    4.5750 hc        1 MOL      0.040033
     20 H6          1.8060   -0.8420    4.5080 hc        1 MOL      0.040033
     21 H7          0.7570   -2.1550    5.0620 hc        1 MOL      0.040033
     22 H8          0.5130   -3.9180    2.7880 hc        1 MOL      0.040033
     23 H9         -0.9110   -3.1030    3.4460 hc        1 MOL      0.040033
     24 H10        -0.5680   -3.0020    1.7140 hc        1 MOL      0.040033
     25 H11         2.3250    0.1970   -4.7440 hc        1 MOL      0.074367
     26 H12         2.6710   -1.5080   -5.1960 hc        1 MOL      0.074367
     27 H13         3.1750   -0.8780   -3.6150 hc        1 MOL      0.074367
     28 H14        -1.0500    0.6000   -2.2710 hc        1 MOL      0.053700
     29 H15        -1.3370   -0.6600   -3.4860 hc        1 MOL      0.053700
     30 H16        -2.2080   -0.6700   -1.9390 hc        1 MOL      0.053700
     31 H17         2.2010   -1.2800   -0.0540 hc        1 MOL      0.056700
     32 H18         1.2070   -2.6700    0.3070 hc        1 MOL      0.056700
     33 H19         0.1920    0.1870   -0.2220 hc        1 MOL      0.052700
     34 H20        -0.8470   -1.1170    0.2770 hc        1 MOL      0.052700
@<TRIPOS>BOND
     1    1    2 2   
     2    2   12 1   
     3    3    4 2   
     4    3   10 1   
     5    4    6 1   
     6    4    7 1   
     7    5    8 1   
     8    5   13 2   
     9    5   14 1   
    10    9   12 1   
    11   10   11 1   
    12   11   12 1   
    13   12   14 1   
    14    1   15 1   
    15    1   16 1   
    16    2   17 1   
    17    3   18 1   
    18    6   19 1   
    19    6   20 1   
    20    6   21 1   
    21    7   22 1   
    22    7   23 1   
    23    7   24 1   
    24    8   25 1   
    25    8   26 1   
    26    8   27 1   
    27    9   28 1   
    28    9   29 1   
    29    9   30 1   
    30   10   31 1   
    31   10   32 1   
    32   11   33 1   
    33   11   34 1   
@<TRIPOS>SUBSTRUCTURE
     1 TMP         1 TEMP              0 ****  ****    0 ROOT
