@<TRIPOS>MOLECULE
1_bromo_2_methylpropane
   14    13     1     0     0
SMALL
No Charge or Current Charge


@<TRIPOS>ATOM
      1 C1          0.3900   -0.1780   -1.0080 c3        1 MOL     -0.092000
      2 C2         -0.7000    1.9370   -1.7720 c3        1 MOL     -0.092000
      3 C3          0.0070    0.2530   -3.4790 c3        1 MOL     -0.003100
      4 C4         -0.5320    0.4430   -2.0610 c3        1 MOL     -0.063400
      5 Br1         1.7600    1.0800   -3.6870 br        1 MOL     -0.181600
      6 H1          1.3970    0.2500   -1.0590 hc        1 MOL      0.039200
      7 H2         -0.0000    0.0000    0.0000 hc        1 MOL      0.039200
      8 H3          0.4760   -1.2620   -1.1370 hc        1 MOL      0.039200
      9 H4          0.2570    2.4660   -1.8430 hc        1 MOL      0.039200
     10 H5         -1.1020    2.0960   -0.7670 hc        1 MOL      0.039200
     11 H6         -1.3940    2.3950   -2.4850 hc        1 MOL      0.039200
     12 H7         -0.6460    0.6940   -4.2380 h1        1 MOL      0.070300
     13 H8          0.1620   -0.8050   -3.7130 h1        1 MOL      0.070300
     14 H9         -1.5190   -0.0270   -1.9740 hc        1 MOL      0.056100
@<TRIPOS>BOND
     1    1    4 1   
     2    2    4 1   
     3    3    4 1   
     4    3    5 1   
     5    1    6 1   
     6    1    7 1   
     7    1    8 1   
     8    2    9 1   
     9    2   10 1   
    10    2   11 1   
    11    3   12 1   
    12    3   13 1   
    13    4   14 1   
@<TRIPOS>SUBSTRUCTURE
     1 R0_         1 TEMP              0 ****  ****    0 ROOT
