@<TRIPOS>MOLECULE
SAMPL4_032
   13    13     1     0     0
SMALL
bcc


@<TRIPOS>ATOM
      1 C1          1.8850   -1.0360   -0.1120 ca        1 MOL     -0.149000
      2 C2          0.8070   -0.4630    0.5610 ca        1 MOL     -0.084000
      3 C3          2.8780   -1.6520    2.0020 ca        1 MOL     -0.207000
      4 C4          2.9210   -1.6310    0.6080 ca        1 MOL      0.136100
      5 C5          0.7640   -0.4840    1.9550 ca        1 MOL     -0.019600
      6 C6          1.8000   -1.0790    2.6760 ca        1 MOL      0.057400
      7 O1          3.9730   -2.1900   -0.0500 oh        1 MOL     -0.490100
      8 Cl1        -0.5990    0.2430    2.7310 cl        1 MOL     -0.069400
      9 Cl2         1.8040   -1.1370    4.4030 cl        1 MOL     -0.065400
     10 H1          1.9130   -1.0170   -1.1990 ha        1 MOL      0.160000
     11 H2          0.0080   -0.0040   -0.0160 ha        1 MOL      0.155000
     12 H3          3.6920   -2.1180    2.5540 ha        1 MOL      0.153000
     13 H4          4.6080   -2.5600    0.5850 ho        1 MOL      0.424000
@<TRIPOS>BOND
     1    1    2 ar  
     2    1    4 ar  
     3    2    5 ar  
     4    3    4 ar  
     5    3    6 ar  
     6    4    7 1   
     7    5    6 ar  
     8    5    8 1   
     9    6    9 1   
    10    1   10 1   
    11    2   11 1   
    12    3   12 1   
    13    7   13 1   
@<TRIPOS>SUBSTRUCTURE
     1 TMP         1 TEMP              0 ****  ****    0 ROOT
