@<TRIPOS>MOLECULE
etgd.xyz
   20    19     1     0     0
SMALL
No Charge or Current Charge


@<TRIPOS>ATOM
      1 C1          1.5000    0.0000    0.0000 c         1 MOL      0.651300
      2 C2          3.0800   -0.0740   -2.9300 c         1 MOL      0.651200
      3 C3          0.0000    0.0000    0.0000 c3        1 MOL     -0.155200
      4 C4          3.4590   -1.4090   -3.5020 c3        1 MOL     -0.155200
      5 C5          3.3850    1.4490   -0.0740 c3        1 MOL      0.115300
      6 C6          3.8650    1.6530   -1.4970 c3        1 MOL      0.115100
      7 O1          2.1850   -0.9750   -0.0080 o         1 MOL     -0.538300
      8 O2          2.0370    0.4740   -3.1050 o         1 MOL     -0.538400
      9 O3          1.9840    1.2370    0.0000 os        1 MOL     -0.429000
     10 O4          4.0580    0.4280   -2.1850 os        1 MOL     -0.429000
     11 H1         -0.3410    0.3740   -0.9590 hc        1 MOL      0.079100
     12 H2         -0.3760    0.6590    0.7720 hc        1 MOL      0.066100
     13 H3         -0.3610   -1.0060    0.1510 hc        1 MOL      0.070500
     14 H4          4.4350   -1.3550   -3.9690 hc        1 MOL      0.066000
     15 H5          3.5140   -2.1250   -2.6890 hc        1 MOL      0.079100
     16 H6          2.7120   -1.7210   -4.2160 hc        1 MOL      0.070500
     17 H7          3.9120    0.6310    0.3960 h1        1 MOL      0.070200
     18 H8          3.5580    2.3610    0.4820 h1        1 MOL      0.070300
     19 H9          3.1830    2.2860   -2.0460 h1        1 MOL      0.070200
     20 H10         4.8440    2.1140   -1.4660 h1        1 MOL      0.070300
@<TRIPOS>BOND
     1    1    3 1   
     2    1    7 2   
     3    1    9 1   
     4    2    4 1   
     5    2    8 2   
     6    2   10 1   
     7    5    6 1   
     8    5    9 1   
     9    6   10 1   
    10    3   11 1   
    11    3   12 1   
    12    3   13 1   
    13    4   14 1   
    14    4   15 1   
    15    4   16 1   
    16    5   17 1   
    17    5   18 1   
    18    6   19 1   
    19    6   20 1   
@<TRIPOS>SUBSTRUCTURE
     1 MOL         1 TEMP              0 ****  ****    0 ROOT
