@<TRIPOS>MOLECULE
ethanethiol
    9     8     1     0     0
SMALL
No Charge or Current Charge


@<TRIPOS>ATOM
      1 C1          0.4410   -0.3500    0.9400 c3        1 MOL     -0.084900
      2 C2          1.8520   -0.8680    0.7340 c3        1 MOL      0.015400
      3 S1          2.9260    0.4450    0.0920 sh        1 MOL     -0.384200
      4 H1          0.4160    0.4720    1.6630 hc        1 MOL      0.047300
      5 H2          0.0000    0.0000    0.0000 hc        1 MOL      0.047300
      6 H3         -0.1970   -1.1510    1.3270 hc        1 MOL      0.047300
      7 H4          1.8500   -1.7010    0.0240 h1        1 MOL      0.056900
      8 H5          2.2640   -1.2290    1.6810 h1        1 MOL      0.056900
      9 H6          3.5900   -0.3270   -0.7790 hs        1 MOL      0.198100
@<TRIPOS>BOND
     1    1    2 1   
     2    2    3 1   
     3    1    4 1   
     4    1    5 1   
     5    1    6 1   
     6    2    7 1   
     7    2    8 1   
     8    3    9 1   
@<TRIPOS>SUBSTRUCTURE
     1 R0_         1 TEMP              0 ****  ****    0 ROOT
