@<TRIPOS>MOLECULE
2_methylpropene
   12    11     1     0     0
SMALL
No Charge or Current Charge


@<TRIPOS>ATOM
      1 C1          0.4690   -0.6870    0.6960 c2        1 MOL     -0.227800
      2 C2          1.1100   -1.7850    0.2680 c2        1 MOL     -0.117200
      3 C3          1.2140   -2.1250   -1.1890 c3        1 MOL     -0.058000
      4 C4          1.7620   -2.7440    1.2190 c3        1 MOL     -0.058000
      5 H1          0.3990   -0.4510    1.7520 ha        1 MOL      0.111200
      6 H2          0.0000    0.0000    0.0000 ha        1 MOL      0.111200
      7 H3          2.2650   -2.1770   -1.4930 hc        1 MOL      0.039800
      8 H4          0.7470   -3.0950   -1.3870 hc        1 MOL      0.039800
      9 H5          0.7210   -1.3810   -1.8230 hc        1 MOL      0.039800
     10 H6          1.3240   -3.7420    1.1130 hc        1 MOL      0.039800
     11 H7          2.8350   -2.8120    1.0130 hc        1 MOL      0.039800
     12 H8          1.6420   -2.4360    2.2630 hc        1 MOL      0.039800
@<TRIPOS>BOND
     1    1    2 2   
     2    2    3 1   
     3    2    4 1   
     4    1    5 1   
     5    1    6 1   
     6    3    7 1   
     7    3    8 1   
     8    3    9 1   
     9    4   10 1   
    10    4   11 1   
    11    4   12 1   
@<TRIPOS>SUBSTRUCTURE
     1 R0_         1 TEMP              0 ****  ****    0 ROOT
