@<TRIPOS>MOLECULE
CUP08023_AM1BCC_v1_0
   40    41     1     0     0
SMALL
No Charge or Current Charge


@<TRIPOS>ATOM
      1 C1          5.9800   -9.8870   -4.1430 ca        1 MOL     -0.113000
      2 C2          6.7850   -9.7590   -2.9920 ca        1 MOL     -0.113000
      3 C3          5.3820   -8.7660   -4.7280 ca        1 MOL     -0.057100
      4 C4          7.0060   -8.5080   -2.4060 ca        1 MOL     -0.057100
      5 C5          5.6130   -7.5440   -4.1290 ca        1 MOL     -0.134100
      6 C6          6.4020   -7.4180   -3.0010 ca        1 MOL     -0.134100
      7 C7          5.1470   -6.2080   -4.4890 c         1 MOL      0.732700
      8 C8          6.4430   -6.0020   -2.6470 c         1 MOL      0.732700
      9 C9         -0.4150   -2.1290   -3.7800 c3        1 MOL     -0.120500
     10 C10         2.2640   -5.0230    1.3350 c3        1 MOL     -0.120500
     11 C11         0.2450   -3.1350   -2.8590 c3        1 MOL      0.146200
     12 C12         2.4810   -5.4270   -0.1080 c3        1 MOL      0.146200
     13 C13         6.7490   -3.1120   -3.7080 c3        1 MOL      0.026100
     14 C14         5.4400   -3.9110   -3.6060 c3        1 MOL      0.361300
     15 N1          5.6450   -5.3480   -3.5470 n         1 MOL     -0.533800
     16 O1          4.4580   -5.9620   -5.4610 o         1 MOL     -0.557600
     17 O2          7.1040   -5.5500   -1.7320 o         1 MOL     -0.557600
     18 O3          1.6530   -3.0080   -2.9850 os        1 MOL     -0.484100
     19 O4          1.9790   -4.3970   -0.9440 os        1 MOL     -0.484100
     20 P1          2.6070   -4.2020   -2.4300 p5        1 MOL      0.869900
     21 S1          2.4870   -5.8080   -3.5310 s         1 MOL     -0.446500
     22 S2          4.4930   -3.3170   -2.1680 ss        1 MOL     -0.530500
     23 Cl1         7.6500   -3.5310   -5.1980 cl        1 MOL     -0.186900
     24 H1          5.8250  -10.8720   -4.5800 ha        1 MOL      0.147800
     25 H2          7.2410  -10.6460   -2.5560 ha        1 MOL      0.147800
     26 H3          4.7630   -8.8500   -5.6150 ha        1 MOL      0.161700
     27 H4          7.6270   -8.3950   -1.5230 ha        1 MOL      0.161700
     28 H5         -0.1070   -1.1110   -3.5260 hc        1 MOL      0.057800
     29 H6         -0.1150   -2.3040   -4.8180 hc        1 MOL      0.057800
     30 H7         -1.5050   -2.1940   -3.7110 hc        1 MOL      0.057800
     31 H8          2.7890   -4.0880    1.5560 hc        1 MOL      0.057800
     32 H9          1.2010   -4.8440    1.5310 hc        1 MOL      0.057800
     33 H10         2.6230   -5.7990    2.0170 hc        1 MOL      0.057800
     34 H11        -0.0760   -4.1460   -3.1230 h1        1 MOL      0.076200
     35 H12        -0.0400   -2.9350   -1.8210 h1        1 MOL      0.076200
     36 H13         1.9400   -6.3530   -0.3240 h1        1 MOL      0.076200
     37 H14         3.5470   -5.5900   -0.2920 h1        1 MOL      0.076200
     38 H15         6.5500   -2.0370   -3.7640 h1        1 MOL      0.109100
     39 H16         7.4240   -3.2910   -2.8660 h1        1 MOL      0.109100
     40 H17         4.8420   -3.6830   -4.4940 h2        1 MOL      0.126700
@<TRIPOS>BOND
     1    1    2 ar  
     2    1    3 ar  
     3    2    4 ar  
     4    3    5 ar  
     5    4    6 ar  
     6    5    6 ar  
     7    5    7 1   
     8    6    8 1   
     9    7   15 1   
    10    7   16 2   
    11    8   15 1   
    12    8   17 2   
    13    9   11 1   
    14   10   12 1   
    15   11   18 1   
    16   12   19 1   
    17   13   14 1   
    18   13   23 1   
    19   14   15 1   
    20   14   22 1   
    21   18   20 1   
    22   19   20 1   
    23   20   21 2   
    24   20   22 1   
    25    1   24 1   
    26    2   25 1   
    27    3   26 1   
    28    4   27 1   
    29    9   28 1   
    30    9   29 1   
    31    9   30 1   
    32   10   31 1   
    33   10   32 1   
    34   10   33 1   
    35   11   34 1   
    36   11   35 1   
    37   12   36 1   
    38   12   37 1   
    39   13   38 1   
    40   13   39 1   
    41   14   40 1   
@<TRIPOS>SUBSTRUCTURE
     1 R0_         1 TEMP              0 ****  ****    0 ROOT
