@<TRIPOS>MOLECULE
nitromethane
    7     6     1     0     0
SMALL
No Charge or Current Charge


@<TRIPOS>ATOM
      1 C1         -0.0500   -1.0800    0.1410 c3        1 MOL     -0.098800
      2 N1         -0.9540   -1.6160   -0.8790 no        1 MOL      0.233500
      3 O1         -1.0590   -0.9960   -1.9550 o         1 MOL     -0.209200
      4 O2         -1.5580   -2.6770   -0.6220 o         1 MOL     -0.209200
      5 H1         -0.4680   -1.3360    1.1150 h1        1 MOL      0.094600
      6 H2          0.0000    0.0000    0.0000 h1        1 MOL      0.094600
      7 H3          0.9230   -1.5480   -0.0110 h1        1 MOL      0.094600
@<TRIPOS>BOND
     1    1    2 1   
     2    2    3 1   
     3    2    4 1   
     4    1    5 1   
     5    1    6 1   
     6    1    7 1   
@<TRIPOS>SUBSTRUCTURE
     1 R0_         1 TEMP              0 ****  ****    0 ROOT
