@<TRIPOS>MOLECULE
m_xylene
   18    18     1     0     0
SMALL
No Charge or Current Charge


@<TRIPOS>ATOM
      1 C1          0.8320   -0.3950    0.5750 ca        1 MOL     -0.123500
      2 C2          1.8990   -1.0140   -0.0770 ca        1 MOL     -0.135200
      3 C3          0.8350   -0.2830    1.9660 ca        1 MOL     -0.135200
      4 C4          2.9710   -1.4090    2.0520 ca        1 MOL     -0.131500
      5 C5          2.9680   -1.5200    0.6620 ca        1 MOL     -0.064300
      6 C6          1.9040   -0.7900    2.7040 ca        1 MOL     -0.064300
      7 C7          4.1090   -2.1810   -0.0360 c3        1 MOL     -0.060200
      8 C8          1.9060   -0.6710    4.1910 c3        1 MOL     -0.060200
      9 H1         -0.0000   -0.0010    0.0000 ha        1 MOL      0.129400
     10 H2          1.8880   -1.0960   -1.1600 ha        1 MOL      0.129900
     11 H3         -0.0010    0.2010    2.4650 ha        1 MOL      0.129900
     12 H4          3.8040   -1.8040    2.6280 ha        1 MOL      0.130000
     13 H5          4.8780   -2.4790    0.6870 hc        1 MOL      0.042500
     14 H6          3.7790   -3.0750   -0.5810 hc        1 MOL      0.042500
     15 H7          4.5670   -1.5100   -0.7740 hc        1 MOL      0.042500
     16 H8          2.8210   -0.1720    4.5330 hc        1 MOL      0.042500
     17 H9          1.0420   -0.0950    4.5460 hc        1 MOL      0.042500
     18 H10         1.8480   -1.6580    4.6690 hc        1 MOL      0.042500
@<TRIPOS>BOND
     1    1    2 ar  
     2    1    3 ar  
     3    2    5 ar  
     4    3    6 ar  
     5    4    5 ar  
     6    4    6 ar  
     7    5    7 1   
     8    6    8 1   
     9    1    9 1   
    10    2   10 1   
    11    3   11 1   
    12    4   12 1   
    13    7   13 1   
    14    7   14 1   
    15    7   15 1   
    16    8   16 1   
    17    8   17 1   
    18    8   18 1   
@<TRIPOS>SUBSTRUCTURE
     1 R0_         1 TEMP              0 ****  ****    0 ROOT
