@<TRIPOS>MOLECULE
non_1_ene
   27    26     1     0     0
SMALL
No Charge or Current Charge


@<TRIPOS>ATOM
      1 C1         -1.2730   -4.5030    4.8400 c2        1 MOL     -0.225000
      2 C2         -0.9600   -3.5270    3.9810 c2        1 MOL     -0.164000
      3 C3         -5.7590    2.8700    0.0590 c3        1 MOL     -0.089600
      4 C4         -1.5830   -2.1630    3.9970 c3        1 MOL     -0.048600
      5 C5         -5.0280    1.5380    0.0140 c3        1 MOL     -0.077700
      6 C6         -2.2130   -1.7740    2.6550 c3        1 MOL     -0.072800
      7 C7         -4.3100    1.2480    1.3320 c3        1 MOL     -0.076300
      8 C8         -2.9190   -0.4130    2.6290 c3        1 MOL     -0.077300
      9 C9         -3.6040   -0.1090    1.2950 c3        1 MOL     -0.076600
     10 H1         -0.7820   -5.4680    4.7790 ha        1 MOL      0.110400
     11 H2         -2.0210   -4.3600    5.6130 ha        1 MOL      0.110400
     12 H3         -0.2000   -3.7200    3.2280 ha        1 MOL      0.117700
     13 H4         -6.5140    2.8770    0.8520 hc        1 MOL      0.031400
     14 H5         -6.2650    3.0580   -0.8930 hc        1 MOL      0.031400
     15 H6         -5.0610    3.6940    0.2410 hc        1 MOL      0.031400
     16 H7         -2.3230   -2.0750    4.8010 hc        1 MOL      0.044700
     17 H8         -0.7940   -1.4370    4.2320 hc        1 MOL      0.044700
     18 H9         -5.7480    0.7400   -0.2010 hc        1 MOL      0.037300
     19 H10        -4.3040    1.5520   -0.8090 hc        1 MOL      0.037300
     20 H11        -1.4300   -1.7830    1.8870 hc        1 MOL      0.040100
     21 H12        -2.9380   -2.5440    2.3630 hc        1 MOL      0.040100
     22 H13        -3.5770    2.0390    1.5330 hc        1 MOL      0.037700
     23 H14        -5.0350    1.2630    2.1560 hc        1 MOL      0.037700
     24 H15        -2.2080    0.3860    2.8730 hc        1 MOL      0.039300
     25 H16        -3.6730   -0.4080    3.4260 hc        1 MOL      0.039300
     26 H17        -2.8660   -0.1050    0.4850 hc        1 MOL      0.038700
     27 H18        -4.3320   -0.8960    1.0680 hc        1 MOL      0.038700
@<TRIPOS>BOND
     1    1    2 2   
     2    2    4 1   
     3    3    5 1   
     4    4    6 1   
     5    5    7 1   
     6    6    8 1   
     7    7    9 1   
     8    8    9 1   
     9    1   10 1   
    10    1   11 1   
    11    2   12 1   
    12    3   13 1   
    13    3   14 1   
    14    3   15 1   
    15    4   16 1   
    16    4   17 1   
    17    5   18 1   
    18    5   19 1   
    19    6   20 1   
    20    6   21 1   
    21    7   22 1   
    22    7   23 1   
    23    8   24 1   
    24    8   25 1   
    25    9   26 1   
    26    9   27 1   
@<TRIPOS>SUBSTRUCTURE
     1 R0_         1 TEMP              0 ****  ****    0 ROOT
