@<TRIPOS>MOLECULE
styrene
   16    16     1     0     0
SMALL
No Charge or Current Charge


@<TRIPOS>ATOM
      1 C1         -0.1570    2.6190    5.2950 ca        1 MOL     -0.127300
      2 C2          0.5870    2.5880    4.1150 ca        1 MOL     -0.131100
      3 C3         -0.2470    1.4790    6.0930 ca        1 MOL     -0.131100
      4 C4          1.2400    1.4170    3.7340 ca        1 MOL     -0.119000
      5 C5          0.4070    0.3070    5.7120 ca        1 MOL     -0.119000
      6 C6          1.1510    0.2760    4.5320 ca        1 MOL     -0.057600
      7 C7          2.3430   -1.8810    4.9600 c2        1 MOL     -0.208700
      8 C8          1.8330   -0.9450    4.1340 ce        1 MOL     -0.113900
      9 H1         -0.6660    3.5320    5.5920 ha        1 MOL      0.131000
     10 H2          0.6560    3.4770    3.4940 ha        1 MOL      0.131100
     11 H3         -0.8260    1.5040    7.0120 ha        1 MOL      0.131100
     12 H4          1.8160    1.4090    2.8110 ha        1 MOL      0.131800
     13 H5          0.3280   -0.5730    6.3450 ha        1 MOL      0.131800
     14 H6          2.8410   -2.7710    4.5930 ha        1 MOL      0.113800
     15 H7          2.2570   -1.7710    6.0370 ha        1 MOL      0.113800
     16 H8          1.9610   -1.1160    3.0600 ha        1 MOL      0.123200
@<TRIPOS>BOND
     1    1    2 ar  
     2    1    3 ar  
     3    2    4 ar  
     4    3    5 ar  
     5    4    6 ar  
     6    5    6 ar  
     7    6    8 1   
     8    7    8 2   
     9    1    9 1   
    10    2   10 1   
    11    3   11 1   
    12    4   12 1   
    13    5   13 1   
    14    7   14 1   
    15    7   15 1   
    16    8   16 1   
@<TRIPOS>SUBSTRUCTURE
     1 R0_         1 TEMP              0 ****  ****    0 ROOT
