@<TRIPOS>MOLECULE
penta_14_diene
   13    12     1     0     0
SMALL
No Charge or Current Charge


@<TRIPOS>ATOM
      1 C1          0.8530    0.0540    0.6710 c2        1 MOL     -0.221600
      2 C2         -2.2210    0.9860    3.6000 c2        1 MOL     -0.221600
      3 C3          0.7210   -0.1620    1.9850 c2        1 MOL     -0.162800
      4 C4         -1.0350    0.3710    3.6570 c2        1 MOL     -0.162800
      5 C5         -0.5520   -0.6160    2.6350 c3        1 MOL     -0.020200
      6 H1          1.8040    0.3760    0.2600 ha        1 MOL      0.111600
      7 H2          0.0230   -0.0850   -0.0130 ha        1 MOL      0.111600
      8 H3         -2.5150    1.6850    4.3750 ha        1 MOL      0.111600
      9 H4         -2.9160    0.8070    2.7870 ha        1 MOL      0.111600
     10 H5          1.5870   -0.0130    2.6250 ha        1 MOL      0.119800
     11 H6         -0.3800    0.5830    4.4990 ha        1 MOL      0.119800
     12 H7         -0.3670   -1.5740    3.1350 hc        1 MOL      0.051600
     13 H8         -1.3270   -0.8040    1.8820 hc        1 MOL      0.051600
@<TRIPOS>BOND
     1    1    3 2   
     2    2    4 2   
     3    3    5 1   
     4    4    5 1   
     5    1    6 1   
     6    1    7 1   
     7    2    8 1   
     8    2    9 1   
     9    3   10 1   
    10    4   11 1   
    11    5   12 1   
    12    5   13 1   
@<TRIPOS>SUBSTRUCTURE
     1 R0_         1 TEMP              0 ****  ****    0 ROOT
