@<TRIPOS>MOLECULE
3_methylhexane
   23    22     1     0     0
SMALL
No Charge or Current Charge


@<TRIPOS>ATOM
      1 C1          3.6310    1.4800   -5.5350 c3        1 MOL     -0.089600
      2 C2          0.5120   -0.1930   -2.1290 c3        1 MOL     -0.089300
      3 C3          1.8580   -2.6900   -3.2930 c3        1 MOL     -0.086800
      4 C4          3.5060    0.7680   -4.1960 c3        1 MOL     -0.077800
      5 C5          1.9460   -0.6260   -1.8620 c3        1 MOL     -0.074700
      6 C6          2.7150   -0.5350   -4.3330 c3        1 MOL     -0.072900
      7 C7          2.5980   -1.3720   -3.0420 c3        1 MOL     -0.063400
      8 H1          2.6450    1.7330   -5.9380 hc        1 MOL      0.031200
      9 H2          4.1510    0.8530   -6.2660 hc        1 MOL      0.031200
     10 H3          4.1980    2.4090   -5.4190 hc        1 MOL      0.031200
     11 H4          0.4620    0.5750   -2.9060 hc        1 MOL      0.031500
     12 H5          0.0730    0.2300   -1.2200 hc        1 MOL      0.031500
     13 H6         -0.1040   -1.0430   -2.4390 hc        1 MOL      0.031500
     14 H7          1.7820   -3.2770   -2.3720 hc        1 MOL      0.032200
     15 H8          0.8470   -2.5220   -3.6770 hc        1 MOL      0.032200
     16 H9          2.3950   -3.2980   -4.0290 hc        1 MOL      0.032200
     17 H10         4.5120    0.5660   -3.8120 hc        1 MOL      0.037800
     18 H11         3.0140    1.4420   -3.4870 hc        1 MOL      0.037800
     19 H12         2.5430    0.2490   -1.5810 hc        1 MOL      0.037100
     20 H13         1.9430   -1.2880   -0.9860 hc        1 MOL      0.037100
     21 H14         1.7090   -0.3070   -4.7060 hc        1 MOL      0.037800
     22 H15         3.1850   -1.1560   -5.1080 hc        1 MOL      0.037800
     23 H16         3.6210   -1.6350   -2.7420 hc        1 MOL      0.044300
@<TRIPOS>BOND
     1    1    4 1   
     2    2    5 1   
     3    3    7 1   
     4    4    6 1   
     5    5    7 1   
     6    6    7 1   
     7    1    8 1   
     8    1    9 1   
     9    1   10 1   
    10    2   11 1   
    11    2   12 1   
    12    2   13 1   
    13    3   14 1   
    14    3   15 1   
    15    3   16 1   
    16    4   17 1   
    17    4   18 1   
    18    5   19 1   
    19    5   20 1   
    20    6   21 1   
    21    6   22 1   
    22    7   23 1   
@<TRIPOS>SUBSTRUCTURE
     1 R0_         1 TEMP              0 ****  ****    0 ROOT
