@<TRIPOS>MOLECULE
cyanuric
   12    12     1     0     0
SMALL
No Charge or Current Charge


@<TRIPOS>ATOM
      1 C1         -0.4150   -0.7480    1.8790 c         1 MOL      0.820900
      2 C2          0.3980   -3.0670    2.2040 c         1 MOL      0.821500
      3 C3          0.7610   -1.9190    0.0380 c         1 MOL      0.821000
      4 N1         -0.2360   -1.9040    2.6350 n         1 MOL     -0.591300
      5 N2          0.1070   -0.8200    0.5900 n         1 MOL     -0.590700
      6 N3          0.8740   -3.0090    0.8970 n         1 MOL     -0.591400
      7 O1         -0.9860    0.2530    2.3130 o         1 MOL     -0.605600
      8 O2          0.5270   -4.0610    2.9190 o         1 MOL     -0.605400
      9 O3          1.2020   -1.9250   -1.1120 o         1 MOL     -0.605900
     10 H1         -0.5990   -1.8980    3.5830 hn        1 MOL      0.375500
     11 H2          0.0000    0.0000    0.0000 hn        1 MOL      0.375800
     12 H3          1.3440   -3.8350    0.5380 hn        1 MOL      0.375500
@<TRIPOS>BOND
     1    1    4 1   
     2    1    5 1   
     3    1    7 2   
     4    2    4 1   
     5    2    6 1   
     6    2    8 2   
     7    3    5 1   
     8    3    6 1   
     9    3    9 2   
    10    4   10 1   
    11    5   11 1   
    12    6   12 1   
@<TRIPOS>SUBSTRUCTURE
     1 CYA         1 TEMP              0 ****  ****    0 ROOT
