@<TRIPOS>MOLECULE
ethyl
   22    22     1     0     0
SMALL
No Charge or Current Charge


@<TRIPOS>ATOM
      1 C1          1.8850   -1.0360   -0.1120 ca        1 MOL     -0.038400
      2 C2          2.8780   -1.6520    2.0020 ca        1 MOL     -0.029500
      3 C3          0.8070   -0.4630    0.5610 ca        1 MOL     -0.176300
      4 C4          1.8000   -1.0790    2.6760 ca        1 MOL     -0.234600
      5 C5          2.9210   -1.6310    0.6080 ca        1 MOL     -0.173900
      6 C6          0.7640   -0.4840    1.9550 ca        1 MOL      0.158200
      7 C7          4.0460   -2.2280   -0.0940 c         1 MOL      0.652000
      8 C8          6.9980   -3.8980    1.3190 c3        1 MOL     -0.100700
      9 C9          6.1160   -3.3760    0.2050 c3        1 MOL      0.140500
     10 O1          4.1680   -2.2560   -1.3250 o         1 MOL     -0.549900
     11 O2         -0.2890    0.0740    2.6120 oh        1 MOL     -0.490500
     12 O3          4.9580   -2.7580    0.7770 os        1 MOL     -0.444900
     13 H1          1.9090   -1.0150   -1.1990 ha        1 MOL      0.161600
     14 H2          3.6800   -2.1130    2.5730 ha        1 MOL      0.156500
     15 H3          0.0030   -0.0010   -0.0060 ha        1 MOL      0.157600
     16 H4          1.7710   -1.0990    3.7620 ha        1 MOL      0.140500
     17 H5          7.3240   -3.0830    1.9720 hc        1 MOL      0.047300
     18 H6          6.4630   -4.6400    1.9200 hc        1 MOL      0.047400
     19 H7          7.8820   -4.3970    0.9090 hc        1 MOL      0.047500
     20 H8          5.7930   -4.1960   -0.4440 h1        1 MOL      0.052800
     21 H9          6.6520   -2.6340   -0.3940 h1        1 MOL      0.052500
     22 H10        -0.1750   -0.0190    3.5710 ho        1 MOL      0.424300
@<TRIPOS>BOND
     1    1    3 ar  
     2    1    5 ar  
     3    2    4 ar  
     4    2    5 ar  
     5    3    6 ar  
     6    4    6 ar  
     7    5    7 1   
     8    6   11 1   
     9    7   10 2   
    10    7   12 1   
    11    8    9 1   
    12    9   12 1   
    13    1   13 1   
    14    2   14 1   
    15    3   15 1   
    16    4   16 1   
    17    8   17 1   
    18    8   18 1   
    19    8   19 1   
    20    9   20 1   
    21    9   21 1   
    22   11   22 1   
@<TRIPOS>SUBSTRUCTURE
     1 ETH         1 TEMP              0 ****  ****    0 ROOT
