@<TRIPOS>MOLECULE
methyl_propanoate
   14    13     1     0     0
SMALL
No Charge or Current Charge


@<TRIPOS>ATOM
      1 C1         -2.0710    1.2980    2.4500 c         1 MOL      0.626800
      2 C2         -0.8820    0.5300    0.3730 c3        1 MOL     -0.089300
      3 C3         -3.0830    1.9320    4.4930 c3        1 MOL      0.128800
      4 C4         -0.8820    0.5510    1.8920 c3        1 MOL     -0.124200
      5 O1         -2.9380    1.8440    1.7810 o         1 MOL     -0.539700
      6 O2         -2.0160    1.2610    3.8140 os        1 MOL     -0.442300
      7 H1         -0.8510    1.5460   -0.0340 hc        1 MOL      0.046500
      8 H2         -0.0090   -0.0150    0.0000 hc        1 MOL      0.046500
      9 H3         -1.7820    0.0420   -0.0130 hc        1 MOL      0.046500
     10 H4         -2.8530    1.9990    5.5590 h1        1 MOL      0.049700
     11 H5         -4.0140    1.3790    4.3450 h1        1 MOL      0.049700
     12 H6         -3.1900    2.9380    4.0810 h1        1 MOL      0.049700
     13 H7          0.0310    1.0390    2.2480 hc        1 MOL      0.075700
     14 H8         -0.9100   -0.4770    2.2680 hc        1 MOL      0.075700
@<TRIPOS>BOND
     1    1    4 1   
     2    1    5 2   
     3    1    6 1   
     4    2    4 1   
     5    3    6 1   
     6    2    7 1   
     7    2    8 1   
     8    2    9 1   
     9    3   10 1   
    10    3   11 1   
    11    3   12 1   
    12    4   13 1   
    13    4   14 1   
@<TRIPOS>SUBSTRUCTURE
     1 R0_         1 TEMP              0 ****  ****    0 ROOT
