@<TRIPOS>MOLECULE
CUP08025_AM1BCC_v1_0
   19    19     1     0     0
SMALL
No Charge or Current Charge


@<TRIPOS>ATOM
      1 C1          1.5630   -1.3630    0.0570 ca        1 MOL     -0.132300
      2 C2          0.6690   -0.5290    0.7320 ca        1 MOL     -0.088700
      3 C3          2.7440   -1.7700    2.1280 ca        1 MOL     -0.118300
      4 C4          1.8750   -0.9010    2.8040 ca        1 MOL      0.152900
      5 C5          2.6010   -1.9890    0.7530 ca        1 MOL      0.064000
      6 C6          0.8180   -0.3040    2.1030 ca        1 MOL     -0.007800
      7 C7          3.8140   -2.4340    2.8770 c         1 MOL      0.667200
      8 C8          2.7860    0.4460    4.4420 c3        1 MOL      0.112100
      9 O1          4.8270   -1.9120    3.2970 o         1 MOL     -0.539900
     10 O2          3.5170   -3.7290    3.0710 oh        1 MOL     -0.583400
     11 O3          2.0060   -0.7200    4.1580 os        1 MOL     -0.337500
     12 Cl1         3.6770   -2.9980   -0.1450 cl        1 MOL     -0.058600
     13 Cl2        -0.3440    0.7010    2.8910 cl        1 MOL     -0.059000
     14 H1          1.4400   -1.5260   -1.0120 ha        1 MOL      0.160000
     15 H2         -0.1460   -0.0620    0.1840 ha        1 MOL      0.158500
     16 H3          3.0480    0.4200    5.5040 h1        1 MOL      0.054200
     17 H4          2.2060    1.3560    4.2590 h1        1 MOL      0.054200
     18 H5          3.7150    0.4740    3.8630 h1        1 MOL      0.054200
     19 H6          4.2720   -4.0800    3.5880 ho        1 MOL      0.448300
@<TRIPOS>BOND
     1    1    2 ar  
     2    1    5 ar  
     3    2    6 ar  
     4    3    4 ar  
     5    3    5 ar  
     6    3    7 1   
     7    4    6 ar  
     8    4   11 1   
     9    5   12 1   
    10    6   13 1   
    11    7    9 2   
    12    7   10 1   
    13    8   11 1   
    14    1   14 1   
    15    2   15 1   
    16    8   16 1   
    17    8   17 1   
    18    8   18 1   
    19   10   19 1   
@<TRIPOS>SUBSTRUCTURE
     1 R0_         1 TEMP              0 ****  ****    0 ROOT
