@<TRIPOS>MOLECULE
26_dimethylphenol
   19    19     1     0     0
SMALL
No Charge or Current Charge


@<TRIPOS>ATOM
      1 C1          1.8850   -1.0380   -0.1090 ca        1 MOL     -0.158500
      2 C2          0.8180   -0.4410    0.5630 ca        1 MOL     -0.100700
      3 C3          2.9350   -1.6040    0.6140 ca        1 MOL     -0.100700
      4 C4          0.8010   -0.4100    1.9570 ca        1 MOL     -0.117000
      5 C5          2.9180   -1.5730    2.0080 ca        1 MOL     -0.117000
      6 C6          1.8510   -0.9770    2.6800 ca        1 MOL      0.122100
      7 C7         -0.3510    0.2320    2.6580 c3        1 MOL     -0.054800
      8 C8          4.0510   -2.1860    2.7640 c3        1 MOL     -0.054800
      9 O1          1.8340   -0.9480    4.0430 oh        1 MOL     -0.500700
     10 H1          1.8980   -1.0620   -1.1940 ha        1 MOL      0.132400
     11 H2          0.0040   -0.0030   -0.0090 ha        1 MOL      0.132300
     12 H3          3.7610   -2.0670    0.0810 ha        1 MOL      0.132300
     13 H4         -0.2940    0.0410    3.7360 hc        1 MOL      0.044200
     14 H5         -0.3580    1.3170    2.4950 hc        1 MOL      0.044200
     15 H6         -1.3080   -0.1530    2.2840 hc        1 MOL      0.044200
     16 H7          4.5560   -1.4270    3.3730 hc        1 MOL      0.044200
     17 H8          3.6990   -2.9870    3.4250 hc        1 MOL      0.044200
     18 H9          4.7860   -2.6340    2.0830 hc        1 MOL      0.044200
     19 H10         1.1790   -0.2880    4.3330 ho        1 MOL      0.419700
@<TRIPOS>BOND
     1    1    2 ar  
     2    1    3 ar  
     3    2    4 ar  
     4    3    5 ar  
     5    4    6 ar  
     6    4    7 1   
     7    5    6 ar  
     8    5    8 1   
     9    6    9 1   
    10    1   10 1   
    11    2   11 1   
    12    3   12 1   
    13    7   13 1   
    14    7   14 1   
    15    7   15 1   
    16    8   16 1   
    17    8   17 1   
    18    8   18 1   
    19    9   19 1   
@<TRIPOS>SUBSTRUCTURE
     1 R0_         1 TEMP              0 ****  ****    0 ROOT
