@<TRIPOS>MOLECULE
nitrobenzene
   14    14     1     0     0
SMALL
No Charge or Current Charge


@<TRIPOS>ATOM
      1 C1          1.8850   -1.0380   -0.1090 ca        1 MOL     -0.091300
      2 C2          0.8180   -0.4410    0.5630 ca        1 MOL     -0.136200
      3 C3          2.9350   -1.6040    0.6140 ca        1 MOL     -0.136200
      4 C4          0.8010   -0.4100    1.9570 ca        1 MOL     -0.071000
      5 C5          2.9180   -1.5730    2.0080 ca        1 MOL     -0.071000
      6 C6          1.8510   -0.9770    2.6800 ca        1 MOL     -0.169500
      7 N1          1.8320   -0.9480    4.0990 no        1 MOL      0.310500
      8 O1          0.8620   -0.4080    4.6840 o         1 MOL     -0.205400
      9 O2          2.7870   -1.4630    4.7310 o         1 MOL     -0.205400
     10 H1          1.8980   -1.0610   -1.1950 ha        1 MOL      0.144300
     11 H2          0.0010    0.0000   -0.0010 ha        1 MOL      0.148400
     12 H3          3.7660   -2.0680    0.0910 ha        1 MOL      0.148400
     13 H4         -0.0380    0.0570    2.4680 ha        1 MOL      0.167200
     14 H5          3.7420   -2.0190    2.5600 ha        1 MOL      0.167200
@<TRIPOS>BOND
     1    1    2 ar  
     2    1    3 ar  
     3    2    4 ar  
     4    3    5 ar  
     5    4    6 ar  
     6    5    6 ar  
     7    6    7 1   
     8    7    8 1   
     9    7    9 1   
    10    1   10 1   
    11    2   11 1   
    12    3   12 1   
    13    4   13 1   
    14    5   14 1   
@<TRIPOS>SUBSTRUCTURE
     1 R0_         1 TEMP              0 ****  ****    0 ROOT
