@<TRIPOS>MOLECULE
nonan_2_one
   28    27     1     0     0
SMALL
No Charge or Current Charge


@<TRIPOS>ATOM
      1 C1          2.0330   -2.5790    0.1200 c         1 MOL      0.559200
      2 C2          2.2870   -3.2380   -1.2100 c3        1 MOL     -0.200500
      3 C3          3.5740    4.5330    5.2230 c3        1 MOL     -0.089500
      4 C4          2.6300   -1.2050    0.3480 c3        1 MOL     -0.178400
      5 C5          2.9870    3.1480    5.0040 c3        1 MOL     -0.078500
      6 C6          2.3680   -0.6660    1.7510 c3        1 MOL     -0.069700
      7 C7          3.2700    2.6360    3.5920 c3        1 MOL     -0.076900
      8 C8          2.9610    0.7300    1.9630 c3        1 MOL     -0.079900
      9 C9          2.7080    1.2290    3.3870 c3        1 MOL     -0.074900
     10 O1          1.3760   -3.1430    0.9960 o         1 MOL     -0.528900
     11 H1          1.6370   -4.1110   -1.3160 hc        1 MOL      0.061800
     12 H2          3.3280   -3.5600   -1.2730 hc        1 MOL      0.061800
     13 H3          2.0580   -2.5380   -2.0180 hc        1 MOL      0.061800
     14 H4          3.1440    5.2560    4.5220 hc        1 MOL      0.031400
     15 H5          4.6600    4.5260    5.0870 hc        1 MOL      0.031400
     16 H6          3.3610    4.8780    6.2400 hc        1 MOL      0.031400
     17 H7          2.2260   -0.5200   -0.4070 hc        1 MOL      0.062700
     18 H8          3.7080   -1.2750    0.1660 hc        1 MOL      0.062700
     19 H9          3.4120    2.4570    5.7420 hc        1 MOL      0.038000
     20 H10         1.9050    3.1840    5.1780 hc        1 MOL      0.038000
     21 H11         2.8130   -1.3590    2.4760 hc        1 MOL      0.048000
     22 H12         1.2920   -0.6430    1.9550 hc        1 MOL      0.048000
     23 H13         2.8260    3.3200    2.8580 hc        1 MOL      0.038900
     24 H14         4.3520    2.6290    3.4140 hc        1 MOL      0.038900
     25 H15         2.5220    1.4350    1.2490 hc        1 MOL      0.044100
     26 H16         4.0410    0.7030    1.7710 hc        1 MOL      0.044100
     27 H17         3.1700    0.5410    4.1060 hc        1 MOL      0.037500
     28 H18         1.6290    1.2310    3.5890 hc        1 MOL      0.037500
@<TRIPOS>BOND
     1    1    2 1   
     2    1    4 1   
     3    1   10 2   
     4    3    5 1   
     5    4    6 1   
     6    5    7 1   
     7    6    8 1   
     8    7    9 1   
     9    8    9 1   
    10    2   11 1   
    11    2   12 1   
    12    2   13 1   
    13    3   14 1   
    14    3   15 1   
    15    3   16 1   
    16    4   17 1   
    17    4   18 1   
    18    5   19 1   
    19    5   20 1   
    20    6   21 1   
    21    6   22 1   
    22    7   23 1   
    23    7   24 1   
    24    8   25 1   
    25    8   26 1   
    26    9   27 1   
    27    9   28 1   
@<TRIPOS>SUBSTRUCTURE
     1 R0_         1 TEMP              0 ****  ****    0 ROOT
