@<TRIPOS>MOLECULE
CUP08018_AM1BCC_v1_0
   24    26     1     0     0
SMALL
No Charge or Current Charge


@<TRIPOS>ATOM
      1 C1          3.2620   -3.6670   -1.2370 c2        1 MOL     -0.047400
      2 C2          2.8390   -3.3820   -2.4740 c2        1 MOL     -0.047400
      3 C3         -0.4690   -0.9860   -0.0670 c3        1 MOL     -0.096500
      4 C4          1.2530   -2.7700   -0.2050 c3        1 MOL     -0.065700
      5 C5          0.7500   -2.4300   -1.6780 c3        1 MOL     -0.065700
      6 C6          0.2690   -2.0450    0.7330 c3        1 MOL      0.059700
      7 C7         -0.4880   -1.5340   -1.4830 c3        1 MOL      0.059700
      8 C8          2.8070   -2.5280   -0.3250 c3        1 MOL      0.092100
      9 C9          2.0950   -2.0470   -2.4060 c3        1 MOL      0.092100
     10 C10         2.9800   -1.3500   -1.3300 c3        1 MOL      0.140700
     11 Cl1         3.9980   -5.0970   -0.7020 cl        1 MOL     -0.003200
     12 Cl2         2.9220   -4.3700   -3.8490 cl        1 MOL     -0.003200
     13 Cl3         0.8980   -1.3940    2.2420 cl        1 MOL     -0.149800
     14 Cl4        -0.7780   -0.2620   -2.6640 cl        1 MOL     -0.149800
     15 Cl5         3.7390   -2.4160    1.1570 cl        1 MOL     -0.058800
     16 Cl6         1.9900   -1.2350   -3.9570 cl        1 MOL     -0.058800
     17 Cl7         4.7030   -1.0640   -1.8530 cl        1 MOL     -0.085500
     18 Cl8         2.4170    0.2380   -0.7700 cl        1 MOL     -0.085500
     19 H1         -1.4900   -0.8570    0.3120 hc        1 MOL      0.079300
     20 H2         -0.0080    0.0000    0.0030 hc        1 MOL      0.079300
     21 H3          1.0960   -3.8440   -0.0170 hc        1 MOL      0.081900
     22 H4          0.3690   -3.3540   -2.1430 hc        1 MOL      0.081900
     23 H5         -0.4790   -2.7880    1.0380 h1        1 MOL      0.075400
     24 H6         -1.3660   -2.1900   -1.5560 h1        1 MOL      0.075400
@<TRIPOS>BOND
     1    1    2 2   
     2    1    8 1   
     3    1   11 1   
     4    2    9 1   
     5    2   12 1   
     6    3    6 1   
     7    3    7 1   
     8    4    5 1   
     9    4    6 1   
    10    4    8 1   
    11    5    7 1   
    12    5    9 1   
    13    6   13 1   
    14    7   14 1   
    15    8   10 1   
    16    8   15 1   
    17    9   10 1   
    18    9   16 1   
    19   10   17 1   
    20   10   18 1   
    21    3   19 1   
    22    3   20 1   
    23    4   21 1   
    24    5   22 1   
    25    6   23 1   
    26    7   24 1   
@<TRIPOS>SUBSTRUCTURE
     1 R0_         1 TEMP              0 ****  ****    0 ROOT
