@<TRIPOS>MOLECULE
4_methylpentan_2_ol
   21    20     1     0     0
SMALL
No Charge or Current Charge


@<TRIPOS>ATOM
      1 C1         -1.0910   -0.8790   -2.1940 c3        1 MOL     -0.087500
      2 C2         -1.0610    0.5650   -0.1500 c3        1 MOL     -0.087500
      3 C3          1.9550    2.3020   -3.0390 c3        1 MOL     -0.128100
      4 C4         -0.3930    1.5690   -2.3520 c3        1 MOL     -0.081700
      5 C5         -1.3050    0.5380   -1.6610 c3        1 MOL     -0.062700
      6 C6          1.1130    1.2950   -2.2680 c3        1 MOL      0.142700
      7 O1          1.4810    1.3580   -0.8880 oh        1 MOL     -0.602800
      8 H1         -0.0430   -1.1830   -2.1030 hc        1 MOL      0.033300
      9 H2         -1.3800   -0.9570   -3.2460 hc        1 MOL      0.033300
     10 H3         -1.7000   -1.5990   -1.6370 hc        1 MOL      0.033300
     11 H4         -1.2460    1.5650    0.2570 hc        1 MOL      0.033300
     12 H5         -1.7310   -0.1320    0.3650 hc        1 MOL      0.033300
     13 H6         -0.0300    0.2850    0.0930 hc        1 MOL      0.033300
     14 H7          1.7510    3.3230   -2.7000 hc        1 MOL      0.041500
     15 H8          3.0220    2.1220   -2.8660 hc        1 MOL      0.041500
     16 H9          1.7730    2.2450   -4.1160 hc        1 MOL      0.041500
     17 H10        -0.5860    2.5670   -1.9350 hc        1 MOL      0.048400
     18 H11        -0.6760    1.6480   -3.4110 hc        1 MOL      0.048400
     19 H12        -2.3520    0.8150   -1.8280 hc        1 MOL      0.046100
     20 H13         1.3350    0.2790   -2.6120 h1        1 MOL      0.043200
     21 H14         2.1970    2.0080   -0.8270 ho        1 MOL      0.397200
@<TRIPOS>BOND
     1    1    5 1   
     2    2    5 1   
     3    3    6 1   
     4    4    5 1   
     5    4    6 1   
     6    6    7 1   
     7    1    8 1   
     8    1    9 1   
     9    1   10 1   
    10    2   11 1   
    11    2   12 1   
    12    2   13 1   
    13    3   14 1   
    14    3   15 1   
    15    3   16 1   
    16    4   17 1   
    17    4   18 1   
    18    5   19 1   
    19    6   20 1   
    20    7   21 1   
@<TRIPOS>SUBSTRUCTURE
     1 R0_         1 TEMP              0 ****  ****    0 ROOT
