@<TRIPOS>MOLECULE
n_propyl_acetate
   17    16     1     0     0
SMALL
No Charge or Current Charge


@<TRIPOS>ATOM
      1 C1          2.6360   -1.8330    4.7980 c         1 MOL      0.630500
      2 C2          3.9230   -1.4540    5.4650 c3        1 MOL     -0.150000
      3 C3         -0.0090   -0.6550    0.8770 c3        1 MOL     -0.089600
      4 C4          1.2440   -0.4430    1.7060 c3        1 MOL     -0.094800
      5 C5          1.2750   -1.3490    2.9270 c3        1 MOL      0.138600
      6 O1          1.8680   -2.6850    5.2240 o         1 MOL     -0.537500
      7 O2          2.4630   -1.0900    3.6620 os        1 MOL     -0.443900
      8 H1          3.8960   -0.4000    5.7520 hc        1 MOL      0.074100
      9 H2          4.7610   -1.6490    4.7910 hc        1 MOL      0.074100
     10 H3          4.0550   -2.0580    6.3670 hc        1 MOL      0.074100
     11 H4         -0.9080   -0.4410    1.4640 hc        1 MOL      0.036200
     12 H5         -0.0060    0.0090    0.0070 hc        1 MOL      0.036200
     13 H6         -0.0720   -1.6870    0.5170 hc        1 MOL      0.036200
     14 H7          1.3080    0.6040    2.0230 hc        1 MOL      0.052300
     15 H8          2.1330   -0.6260    1.0900 hc        1 MOL      0.052300
     16 H9          0.4150   -1.1590    3.5770 h1        1 MOL      0.055500
     17 H10         1.2710   -2.4040    2.6320 h1        1 MOL      0.055500
@<TRIPOS>BOND
     1    1    2 1   
     2    1    6 2   
     3    1    7 1   
     4    3    4 1   
     5    4    5 1   
     6    5    7 1   
     7    2    8 1   
     8    2    9 1   
     9    2   10 1   
    10    3   11 1   
    11    3   12 1   
    12    3   13 1   
    13    4   14 1   
    14    4   15 1   
    15    5   16 1   
    16    5   17 1   
@<TRIPOS>SUBSTRUCTURE
     1 R0_         1 TEMP              0 ****  ****    0 ROOT
