@<TRIPOS>MOLECULE
23_dimethylbuta_13_diene
   16    15     1     0     0
SMALL
No Charge or Current Charge


@<TRIPOS>ATOM
      1 C1          0.6210   -0.4100   -0.7910 c2        1 MOL     -0.216200
      2 C2         -0.8310   -3.7980   -1.2030 c2        1 MOL     -0.216200
      3 C3          0.4220   -1.6580   -1.2550 ce        1 MOL     -0.080500
      4 C4         -0.6320   -2.5510   -0.7390 ce        1 MOL     -0.080500
      5 C5          1.3220   -2.1640   -2.3570 c3        1 MOL     -0.055800
      6 C6         -1.5340   -2.0440    0.3610 c3        1 MOL     -0.055800
      7 H1          1.3950    0.2470   -1.1700 ha        1 MOL      0.113800
      8 H2          0.0000    0.0000    0.0000 ha        1 MOL      0.113800
      9 H3         -1.6190   -4.4280   -0.7990 ha        1 MOL      0.113800
     10 H4         -0.2320   -4.2420   -1.9900 ha        1 MOL      0.113800
     11 H5          2.0670   -1.4180   -2.6590 hc        1 MOL      0.041600
     12 H6          0.7400   -2.4120   -3.2510 hc        1 MOL      0.041600
     13 H7          1.8750   -3.0520   -2.0310 hc        1 MOL      0.041600
     14 H8         -2.0880   -1.1580    0.0330 hc        1 MOL      0.041600
     15 H9         -2.2780   -2.7900    0.6640 hc        1 MOL      0.041600
     16 H10        -0.9530   -1.7930    1.2550 hc        1 MOL      0.041600
@<TRIPOS>BOND
     1    1    3 2   
     2    2    4 2   
     3    3    4 1   
     4    3    5 1   
     5    4    6 1   
     6    1    7 1   
     7    1    8 1   
     8    2    9 1   
     9    2   10 1   
    10    5   11 1   
    11    5   12 1   
    12    5   13 1   
    13    6   14 1   
    14    6   15 1   
    15    6   16 1   
@<TRIPOS>SUBSTRUCTURE
     1 R0_         1 TEMP              0 ****  ****    0 ROOT
