@<TRIPOS>MOLECULE
2_chlorophenol
   13    13     1     0     0
SMALL
No Charge or Current Charge


@<TRIPOS>ATOM
      1 C1          1.8850   -1.0380   -0.1090 ca        1 MOL     -0.094000
      2 C2          0.8180   -0.4410    0.5630 ca        1 MOL     -0.158900
      3 C3          2.9350   -1.6040    0.6140 ca        1 MOL     -0.151500
      4 C4          0.8010   -0.4100    1.9570 ca        1 MOL     -0.085000
      5 C5          2.9180   -1.5730    2.0080 ca        1 MOL      0.137200
      6 C6          1.8510   -0.9770    2.6800 ca        1 MOL     -0.071100
      7 O1          3.9570   -2.1350    2.6890 oh        1 MOL     -0.492200
      8 Cl1         1.8050   -0.9220    4.4040 cl        1 MOL     -0.096500
      9 H1          1.8990   -1.0590   -1.1950 ha        1 MOL      0.138700
     10 H2          0.0010    0.0020    0.0000 ha        1 MOL      0.139500
     11 H3          3.7630   -2.0670    0.0830 ha        1 MOL      0.155300
     12 H4         -0.0370    0.0590    2.4660 ha        1 MOL      0.147700
     13 H5          3.8730   -1.9060    3.6320 ho        1 MOL      0.430700
@<TRIPOS>BOND
     1    1    2 ar  
     2    1    3 ar  
     3    2    4 ar  
     4    3    5 ar  
     5    4    6 ar  
     6    5    6 ar  
     7    5    7 1   
     8    6    8 1   
     9    1    9 1   
    10    2   10 1   
    11    3   11 1   
    12    4   12 1   
    13    7   13 1   
@<TRIPOS>SUBSTRUCTURE
     1 R0_         1 TEMP              0 ****  ****    0 ROOT
