@<TRIPOS>MOLECULE
nonan_1_ol
   30    29     1     0     0
SMALL
No Charge or Current Charge


@<TRIPOS>ATOM
      1 C1         -1.7040    1.7750    4.0540 c3        1 MOL     -0.089800
      2 C2         -2.2580    1.8820    2.6420 c3        1 MOL     -0.078100
      3 C3         -1.9530    3.2480    2.0250 c3        1 MOL     -0.076800
      4 C4         -2.4110    3.3760    0.5690 c3        1 MOL     -0.076200
      5 C5         -2.0820    4.7040   -0.1200 c3        1 MOL     -0.076200
      6 C6         -2.5440    4.7640   -1.5780 c3        1 MOL     -0.077600
      7 C7         -2.1620    6.0980   -2.2250 c3        1 MOL     -0.076500
      8 C8         -2.5980    6.1470   -3.6930 c3        1 MOL     -0.116800
      9 C9         -2.2520    7.4770   -4.3520 c3        1 MOL      0.130000
     10 O1         -2.6930    7.4780   -5.7020 oh        1 MOL     -0.600700
     11 H1         -1.9370    0.7940    4.4790 hc        1 MOL      0.031600
     12 H2         -0.6160    1.8980    4.0590 hc        1 MOL      0.031600
     13 H3         -2.1400    2.5400    4.7050 hc        1 MOL      0.031600
     14 H4         -3.3400    1.7140    2.6770 hc        1 MOL      0.037500
     15 H5         -1.8240    1.0880    2.0230 hc        1 MOL      0.037500
     16 H6         -2.4040    4.0400    2.6330 hc        1 MOL      0.038300
     17 H7         -0.8690    3.4190    2.0540 hc        1 MOL      0.038300
     18 H8         -3.4970    3.2230    0.5250 hc        1 MOL      0.038500
     19 H9         -1.9630    2.5570   -0.0080 hc        1 MOL      0.038500
     20 H10        -2.5720    5.5070    0.4440 hc        1 MOL      0.038600
     21 H11        -1.0060    4.9010   -0.0620 hc        1 MOL      0.038600
     22 H12        -3.6320    4.6310   -1.6250 hc        1 MOL      0.039500
     23 H13        -2.0910    3.9470   -2.1500 hc        1 MOL      0.039500
     24 H14        -2.6340    6.9210   -1.6760 hc        1 MOL      0.041600
     25 H15        -1.0770    6.2390   -2.1530 hc        1 MOL      0.041600
     26 H16        -2.1040    5.3340   -4.2370 hc        1 MOL      0.046300
     27 H17        -3.6800    5.9850   -3.7610 hc        1 MOL      0.046300
     28 H18        -2.7510    8.2970   -3.8260 h1        1 MOL      0.043200
     29 H19        -1.1710    7.6540   -4.3330 h1        1 MOL      0.043200
     30 H20        -3.6640    7.4780   -5.6800 ho        1 MOL      0.397000
@<TRIPOS>BOND
     1    1    2 1   
     2    2    3 1   
     3    3    4 1   
     4    4    5 1   
     5    5    6 1   
     6    6    7 1   
     7    7    8 1   
     8    8    9 1   
     9    9   10 1   
    10    1   11 1   
    11    1   12 1   
    12    1   13 1   
    13    2   14 1   
    14    2   15 1   
    15    3   16 1   
    16    3   17 1   
    17    4   18 1   
    18    4   19 1   
    19    5   20 1   
    20    5   21 1   
    21    6   22 1   
    22    6   23 1   
    23    7   24 1   
    24    7   25 1   
    25    8   26 1   
    26    8   27 1   
    27    9   28 1   
    28    9   29 1   
    29   10   30 1   
@<TRIPOS>SUBSTRUCTURE
     1 R0_         1 TEMP              0 ****  ****    0 ROOT
