@<TRIPOS>MOLECULE
SAMPL4_010
   21    21     1     0     0
SMALL
bcc


@<TRIPOS>ATOM
      1 C1          1.5140   -0.7420    0.4900 ca        1 MOL     -0.141000
      2 C2          2.5030   -1.7250    2.9060 ca        1 MOL      0.111100
      3 C3          1.3220   -0.9830    2.8860 ca        1 MOL      0.052600
      4 C4          3.1890   -1.9750    1.7180 ca        1 MOL      0.052600
      5 C5          0.8270   -0.4920    1.6780 ca        1 MOL      0.034900
      6 C6          2.6950   -1.4840    0.5100 ca        1 MOL      0.034900
      7 C7          1.0160    0.4350    4.7710 c3        1 MOL      0.111200
      8 C8          5.5580   -1.9790    1.9300 c3        1 MOL      0.111200
      9 O1          2.9870   -2.2050    4.0870 oh        1 MOL     -0.486100
     10 O2          0.6610   -0.7460    4.0560 os        1 MOL     -0.325900
     11 O3          4.3430   -2.7030    1.7530 os        1 MOL     -0.325900
     12 Cl1        -0.6330    0.4260    1.6220 cl        1 MOL     -0.061400
     13 Cl2         3.5210   -1.7820   -0.9750 cl        1 MOL     -0.061400
     14 H1          1.1260   -0.3620   -0.4530 ha        1 MOL      0.166000
     15 H2          0.4170    0.5040    5.6820 h1        1 MOL      0.048033
     16 H3          0.8420    1.3100    4.1400 h1        1 MOL      0.048033
     17 H4          2.0750    0.3840    5.0370 h1        1 MOL      0.048033
     18 H5          6.4000   -2.6750    1.9400 h1        1 MOL      0.048033
     19 H6          5.5190   -1.4250    2.8720 h1        1 MOL      0.048033
     20 H7          5.6780   -1.2770    1.1020 h1        1 MOL      0.048033
     21 H8          3.8090   -2.6960    3.9360 ho        1 MOL      0.440000
@<TRIPOS>BOND
     1    1    5 ar  
     2    1    6 ar  
     3    2    3 ar  
     4    2    4 ar  
     5    2    9 1   
     6    3    5 ar  
     7    3   10 1   
     8    4    6 ar  
     9    4   11 1   
    10    5   12 1   
    11    6   13 1   
    12    7   10 1   
    13    8   11 1   
    14    1   14 1   
    15    7   15 1   
    16    7   16 1   
    17    7   17 1   
    18    8   18 1   
    19    8   19 1   
    20    8   20 1   
    21    9   21 1   
@<TRIPOS>SUBSTRUCTURE
     1 TMP         1 TEMP              0 ****  ****    0 ROOT
