@<TRIPOS>MOLECULE
N_methylaniline
   17    17     1     0     0
SMALL
No Charge or Current Charge


@<TRIPOS>ATOM
      1 C1          1.8850   -1.0380   -0.1090 ca        1 MOL     -0.189300
      2 C2          0.8180   -0.4410    0.5630 ca        1 MOL     -0.083700
      3 C3          2.9350   -1.6040    0.6140 ca        1 MOL     -0.083700
      4 C4          0.8010   -0.4100    1.9570 ca        1 MOL     -0.212000
      5 C5          2.9180   -1.5730    2.0080 ca        1 MOL     -0.212000
      6 C6          1.8510   -0.9770    2.6800 ca        1 MOL      0.199500
      7 C7          3.0250   -0.9060    4.8800 c3        1 MOL      0.222800
      8 N1          1.8340   -0.9470    4.0900 nh        1 MOL     -0.806000
      9 H1          1.8970   -1.0610   -1.1950 ha        1 MOL      0.129200
     10 H2          0.0000   -0.0000   -0.0010 ha        1 MOL      0.126200
     11 H3          3.7650   -2.0680    0.0910 ha        1 MOL      0.126200
     12 H4         -0.0360    0.0560    2.4700 ha        1 MOL      0.128500
     13 H5          3.7420   -2.0180    2.5610 ha        1 MOL      0.128500
     14 H6          3.9040   -0.8590    4.2330 h1        1 MOL      0.031200
     15 H7          3.0950   -1.8010    5.5050 h1        1 MOL      0.031200
     16 H8          3.0180   -0.0260    5.5290 h1        1 MOL      0.031200
     17 H9          0.9350   -0.9560    4.5340 hn        1 MOL      0.431800
@<TRIPOS>BOND
     1    1    2 ar  
     2    1    3 ar  
     3    2    4 ar  
     4    3    5 ar  
     5    4    6 ar  
     6    5    6 ar  
     7    6    8 1   
     8    7    8 1   
     9    1    9 1   
    10    2   10 1   
    11    3   11 1   
    12    4   12 1   
    13    5   13 1   
    14    7   14 1   
    15    7   15 1   
    16    7   16 1   
    17    8   17 1   
@<TRIPOS>SUBSTRUCTURE
     1 R0_         1 TEMP              0 ****  ****    0 ROOT
