@<TRIPOS>MOLECULE
24_dimethylpentane
   23    22     1     0     0
SMALL
No Charge or Current Charge


@<TRIPOS>ATOM
      1 C1         -1.7460    1.5250   -1.1960 c3        1 MOL     -0.087300
      2 C2         -0.2010   -0.4410   -1.0960 c3        1 MOL     -0.087300
      3 C3         -2.8540    0.8030    1.2720 c3        1 MOL     -0.087300
      4 C4         -3.7390   -1.5300    1.4500 c3        1 MOL     -0.087300
      5 C5         -2.6540   -0.8080   -0.6980 c3        1 MOL     -0.070200
      6 C6         -1.6120    0.0270   -1.4680 c3        1 MOL     -0.065800
      7 C7         -2.6480   -0.6470    0.8360 c3        1 MOL     -0.065800
      8 H1         -0.9470    2.0840   -1.6960 hc        1 MOL      0.032000
      9 H2         -2.6960    1.9150   -1.5730 hc        1 MOL      0.032000
     10 H3         -1.6880    1.7410   -0.1240 hc        1 MOL      0.032000
     11 H4          0.5540    0.1120   -1.6650 hc        1 MOL      0.032000
     12 H5          0.0000   -0.2890   -0.0300 hc        1 MOL      0.032000
     13 H6         -0.0720   -1.5050   -1.3190 hc        1 MOL      0.032000
     14 H7         -2.0190    1.4370    0.9580 hc        1 MOL      0.032000
     15 H8         -3.7760    1.2180    0.8500 hc        1 MOL      0.032000
     16 H9         -2.9210    0.8750    2.3630 hc        1 MOL      0.032000
     17 H10        -3.7240   -1.4630    2.5430 hc        1 MOL      0.032000
     18 H11        -4.7350   -1.2310    1.1060 hc        1 MOL      0.032000
     19 H12        -3.5870   -2.5810    1.1800 hc        1 MOL      0.032000
     20 H13        -2.5020   -1.8700   -0.9380 hc        1 MOL      0.038200
     21 H14        -3.6540   -0.5520   -1.0750 hc        1 MOL      0.038200
     22 H15        -1.7360   -0.1420   -2.5440 hc        1 MOL      0.045400
     23 H16        -1.6870   -0.9950    1.2320 hc        1 MOL      0.045400
@<TRIPOS>BOND
     1    1    6 1   
     2    2    6 1   
     3    3    7 1   
     4    4    7 1   
     5    5    6 1   
     6    5    7 1   
     7    1    8 1   
     8    1    9 1   
     9    1   10 1   
    10    2   11 1   
    11    2   12 1   
    12    2   13 1   
    13    3   14 1   
    14    3   15 1   
    15    3   16 1   
    16    4   17 1   
    17    4   18 1   
    18    4   19 1   
    19    5   20 1   
    20    5   21 1   
    21    6   22 1   
    22    7   23 1   
@<TRIPOS>SUBSTRUCTURE
     1 R0_         1 TEMP              0 ****  ****    0 ROOT
