@<TRIPOS>MOLECULE
CUP08001_AM1BCC_v1_0
   14    13     1     0     0
SMALL
No Charge or Current Charge


@<TRIPOS>ATOM
      1 C1         -0.8790    0.4230    0.4540 c3        1 MOL      0.131500
      2 C2         -2.1580   -0.2060   -0.0920 c3        1 MOL      0.131500
      3 N1          0.2720    0.8360    2.4770 no        1 MOL      0.382800
      4 N2         -3.2250   -2.2950   -0.3840 no        1 MOL      0.382800
      5 O1          0.2740    0.7170    3.6990 o         1 MOL     -0.165600
      6 O2          1.1000    1.3560    1.7280 o         1 MOL     -0.165600
      7 O3         -3.1600   -3.5110   -0.2260 o         1 MOL     -0.165600
      8 O4         -4.1130   -1.6060   -0.8870 o         1 MOL     -0.165600
      9 O5         -0.8840    0.2840    1.8740 os        1 MOL     -0.357400
     10 O6         -2.0750   -1.6190    0.0910 os        1 MOL     -0.357400
     11 H1         -0.8640    1.4850    0.1830 h1        1 MOL      0.087200
     12 H2         -0.0090   -0.0960    0.0320 h1        1 MOL      0.087200
     13 H3         -2.2380    0.0270   -1.1610 h1        1 MOL      0.087200
     14 H4         -3.0220    0.1910    0.4550 h1        1 MOL      0.087200
@<TRIPOS>BOND
     1    1    2 1   
     2    1    9 1   
     3    2   10 1   
     4    3    5 1   
     5    3    6 1   
     6    3    9 1   
     7    4    7 1   
     8    4    8 1   
     9    4   10 1   
    10    1   11 1   
    11    1   12 1   
    12    2   13 1   
    13    2   14 1   
@<TRIPOS>SUBSTRUCTURE
     1 R0_         1 TEMP              0 ****  ****    0 ROOT
