@<TRIPOS>MOLECULE
CUP08003_AM1BCC_v1_0
   17    16     1     0     0
SMALL
No Charge or Current Charge


@<TRIPOS>ATOM
      1 C1          0.3920   -1.0440   -0.1070 c3        1 MOL     -0.090800
      2 C2         -0.5800   -2.0370    0.5110 c3        1 MOL     -0.076100
      3 C3         -1.9300   -2.0160   -0.2000 c3        1 MOL     -0.086000
      4 C4         -2.9110   -3.0080    0.4200 c3        1 MOL      0.135800
      5 N1         -5.1230   -3.8050    0.1900 no        1 MOL      0.377500
      6 O1         -6.1810   -3.7320   -0.4310 o         1 MOL     -0.184600
      7 O2         -4.8160   -4.5180    1.1470 o         1 MOL     -0.184600
      8 O3         -4.1350   -2.9200   -0.3030 os        1 MOL     -0.351300
      9 H1          0.0020   -0.0230   -0.0460 hc        1 MOL      0.037900
     10 H2          1.3510   -1.0730    0.4190 hc        1 MOL      0.037900
     11 H3          0.5760   -1.2800   -1.1610 hc        1 MOL      0.037900
     12 H4         -0.1480   -3.0430    0.4600 hc        1 MOL      0.043300
     13 H5         -0.7140   -1.7950    1.5720 hc        1 MOL      0.043300
     14 H6         -2.3620   -1.0080   -0.1640 hc        1 MOL      0.063500
     15 H7         -1.8020   -2.2490   -1.2640 hc        1 MOL      0.063500
     16 H8         -2.4980   -4.0220    0.3440 h1        1 MOL      0.066500
     17 H9         -3.0740   -2.7480    1.4730 h1        1 MOL      0.066500
@<TRIPOS>BOND
     1    1    2 1   
     2    2    3 1   
     3    3    4 1   
     4    4    8 1   
     5    5    6 1   
     6    5    7 1   
     7    5    8 1   
     8    1    9 1   
     9    1   10 1   
    10    1   11 1   
    11    2   12 1   
    12    2   13 1   
    13    3   14 1   
    14    3   15 1   
    15    4   16 1   
    16    4   17 1   
@<TRIPOS>SUBSTRUCTURE
     1 R0_         1 TEMP              0 ****  ****    0 ROOT
