@<TRIPOS>MOLECULE
res
    6     5     1     0     0
SMALL
bcc


@<TRIPOS>ATOM
      1 H11        -1.7290    0.3590   -0.5740 h1        1 MOL       0.0801
      2 C1         -0.7000    0.0560   -0.6690 c3        1 MOL      -0.0238
      3 H12        -0.5790   -1.0380   -0.4440 h1        1 MOL       0.0555
      4 H13        -0.3030    0.2300   -1.6890 h1        1 MOL       0.0554
      5 S1          0.3030    1.0070    0.5120 sh        1 MOL      -0.3634
      6 H1          1.4920    0.4060    0.2160 hs        1 MOL       0.1962
@<TRIPOS>BOND
     1    1    2 1   
     2    2    3 1   
     3    2    4 1   
     4    2    5 1   
     5    5    6 1   
@<TRIPOS>SUBSTRUCTURE
     1 res         1 TEMP              0 ****  ****    0 ROOT
