@<TRIPOS>MOLECULE
ethyl_benzoate
   21    21     1     0     0
SMALL
No Charge or Current Charge


@<TRIPOS>ATOM
      1 C1          1.8850   -1.0380   -0.1090 ca        1 MOL     -0.096900
      2 C2          0.8180   -0.4410    0.5630 ca        1 MOL     -0.148000
      3 C3          2.9350   -1.6040    0.6140 ca        1 MOL     -0.148000
      4 C4          0.8010   -0.4100    1.9570 ca        1 MOL     -0.071500
      5 C5          2.9180   -1.5730    2.0080 ca        1 MOL     -0.071500
      6 C6          1.8510   -0.9770    2.6800 ca        1 MOL     -0.135000
      7 C7          1.8330   -0.9450    4.1340 c         1 MOL      0.648100
      8 C8          4.3230   -2.2820    6.4820 c3        1 MOL     -0.113100
      9 C9          3.0390   -1.5800    6.0920 c3        1 MOL      0.142300
     10 O1          0.9300   -0.4370    4.8120 o         1 MOL     -0.546400
     11 O2          2.9410   -1.5470    4.6640 os        1 MOL     -0.443600
     12 H1          1.8970   -1.0610   -1.1950 ha        1 MOL      0.135700
     13 H2          0.0000    0.0000   -0.0000 ha        1 MOL      0.138900
     14 H3          3.7650   -2.0690    0.0910 ha        1 MOL      0.138900
     15 H4         -0.0360    0.0570    2.4700 ha        1 MOL      0.155900
     16 H5          3.7420   -2.0180    2.5610 ha        1 MOL      0.155900
     17 H6          4.4290   -2.3240    7.5690 hc        1 MOL      0.047300
     18 H7          4.3410   -3.3020    6.0850 hc        1 MOL      0.047300
     19 H8          5.1900   -1.7610    6.0620 hc        1 MOL      0.047300
     20 H9          3.0330   -0.5540    6.4700 h1        1 MOL      0.058300
     21 H10         2.1720   -2.1150    6.4920 h1        1 MOL      0.058300
@<TRIPOS>BOND
     1    1    2 ar  
     2    1    3 ar  
     3    2    4 ar  
     4    3    5 ar  
     5    4    6 ar  
     6    5    6 ar  
     7    6    7 1   
     8    7   10 2   
     9    7   11 1   
    10    8    9 1   
    11    9   11 1   
    12    1   12 1   
    13    2   13 1   
    14    3   14 1   
    15    4   15 1   
    16    5   16 1   
    17    8   17 1   
    18    8   18 1   
    19    8   19 1   
    20    9   20 1   
    21    9   21 1   
@<TRIPOS>SUBSTRUCTURE
     1 R0_         1 TEMP              0 ****  ****    0 ROOT
