@<TRIPOS>MOLECULE
dichloromethane
    5     4     1     0     0
SMALL
No Charge or Current Charge


@<TRIPOS>ATOM
      1 C1         -0.3570    0.9860   -0.3060 c3        1 MOL      0.125200
      2 Cl1        -1.0410    0.8710   -1.9320 cl        1 MOL     -0.151000
      3 Cl2        -1.5640    1.5480    0.8550 cl        1 MOL     -0.151000
      4 H1          0.4780    1.6920   -0.3210 h2        1 MOL      0.088400
      5 H2          0.0000   -0.0000    0.0000 h2        1 MOL      0.088400
@<TRIPOS>BOND
     1    1    2 1   
     2    1    3 1   
     3    1    4 1   
     4    1    5 1   
@<TRIPOS>SUBSTRUCTURE
     1 R0_         1 TEMP              0 ****  ****    0 ROOT
