@<TRIPOS>MOLECULE
12_dimethoxyethane
   16    15     1     0     0
SMALL
No Charge or Current Charge


@<TRIPOS>ATOM
      1 C1          0.3150    0.8020    2.4260 c3        1 MOL      0.118100
      2 C2         -3.2680   -2.2460   -0.3500 c3        1 MOL      0.118100
      3 C3         -0.8940    0.4510    0.4420 c3        1 MOL      0.116600
      4 C4         -2.1460   -0.1940   -0.1210 c3        1 MOL      0.116600
      5 O1         -0.8530    0.2360    1.8470 os        1 MOL     -0.416400
      6 O2         -2.1050   -1.5920    0.1370 os        1 MOL     -0.416400
      7 H1          0.1260    1.0340    3.4770 h1        1 MOL      0.032200
      8 H2          0.5880    1.7100    1.8840 h1        1 MOL      0.032200
      9 H3          1.1320    0.0790    2.3570 h1        1 MOL      0.032200
     10 H4         -3.9630   -1.5040   -0.7500 h1        1 MOL      0.032200
     11 H5         -3.7410   -2.8030    0.4620 h1        1 MOL      0.032200
     12 H6         -2.9800   -2.9380   -1.1450 h1        1 MOL      0.032200
     13 H7         -0.8900    1.5300    0.2610 h1        1 MOL      0.042600
     14 H8          0.0000    0.0000    0.0000 h1        1 MOL      0.042600
     15 H9         -2.2120   -0.0490   -1.2040 h1        1 MOL      0.042600
     16 H10        -3.0380    0.2180    0.3610 h1        1 MOL      0.042600
@<TRIPOS>BOND
     1    1    5 1   
     2    2    6 1   
     3    3    4 1   
     4    3    5 1   
     5    4    6 1   
     6    1    7 1   
     7    1    8 1   
     8    1    9 1   
     9    2   10 1   
    10    2   11 1   
    11    2   12 1   
    12    3   13 1   
    13    3   14 1   
    14    4   15 1   
    15    4   16 1   
@<TRIPOS>SUBSTRUCTURE
     1 R0_         1 TEMP              0 ****  ****    0 ROOT
