@<TRIPOS>MOLECULE
CUP08010_AM1BCC_v1_0
   31    32     1     0     0
SMALL
No Charge or Current Charge


@<TRIPOS>ATOM
      1 C1         -3.8240   -2.6720   -4.7120 ca        1 MOL     -0.125800
      2 C2         -2.8280   -1.6960   -4.6950 ca        1 MOL     -0.100300
      3 C3         -3.4760   -4.0160   -4.5980 ca        1 MOL     -0.063100
      4 C4         -1.4860   -2.0680   -4.5640 ca        1 MOL     -0.090700
      5 C5         -2.1270   -4.3690   -4.4680 ca        1 MOL     -0.157700
      6 C6         -1.1220   -3.4150   -4.4490 ca        1 MOL      0.099700
      7 C7         -1.7020   -5.7600   -4.3460 c         1 MOL      0.698500
      8 C8         -0.5670  -11.8280   -1.5270 c3        1 MOL      0.122100
      9 C9          3.3880   -9.5370   -2.3130 c3        1 MOL      0.122100
     10 C10         0.1850   -7.2920   -4.0600 c3        1 MOL      0.328600
     11 N1          0.2320   -3.7410   -4.3210 nc        1 MOL     -0.218000
     12 N2          0.5770   -4.9370   -4.2070 nd        1 MOL     -0.029600
     13 N3         -0.3390   -5.9500   -4.2240 n         1 MOL     -0.269500
     14 O1         -2.5340   -6.6630   -4.3600 o         1 MOL     -0.579800
     15 O2         -0.1720  -10.4830   -1.3290 os        1 MOL     -0.466300
     16 O3          2.2010   -9.9940   -1.6910 os        1 MOL     -0.466300
     17 P1          0.7760   -9.7650   -2.4410 p5        1 MOL      0.806200
     18 S1          0.6980  -10.6540   -4.1770 s         1 MOL     -0.433000
     19 S2          0.3550   -7.7130   -2.3100 ss        1 MOL     -0.444500
     20 H1         -4.8680   -2.3850   -4.8120 ha        1 MOL      0.147700
     21 H2         -3.0940   -0.6450   -4.7820 ha        1 MOL      0.145900
     22 H3         -4.2470   -4.7830   -4.6090 ha        1 MOL      0.166500
     23 H4         -0.7150   -1.3000   -4.5510 ha        1 MOL      0.159600
     24 H5         -1.4770  -12.0110   -0.9510 h1        1 MOL      0.070900
     25 H6          0.2160  -12.4990   -1.1650 h1        1 MOL      0.070900
     26 H7         -0.7730  -12.0320   -2.5810 h1        1 MOL      0.070900
     27 H8          4.1580   -9.4180   -1.5460 h1        1 MOL      0.070900
     28 H9          3.2350   -8.5740   -2.8060 h1        1 MOL      0.070900
     29 H10         3.7320  -10.2770   -3.0410 h1        1 MOL      0.070900
     30 H11        -0.4840   -8.0080   -4.5460 h2        1 MOL      0.111200
     31 H12         1.1610   -7.3550   -4.5510 h2        1 MOL      0.111200
@<TRIPOS>BOND
     1    1    2 ar  
     2    1    3 ar  
     3    2    4 ar  
     4    3    5 ar  
     5    4    6 ar  
     6    5    6 ar  
     7    5    7 1   
     8    6   11 1   
     9    7   13 1   
    10    7   14 2   
    11    8   15 1   
    12    9   16 1   
    13   10   13 1   
    14   10   19 1   
    15   11   12 2   
    16   12   13 1   
    17   15   17 1   
    18   16   17 1   
    19   17   18 2   
    20   17   19 1   
    21    1   20 1   
    22    2   21 1   
    23    3   22 1   
    24    4   23 1   
    25    8   24 1   
    26    8   25 1   
    27    8   26 1   
    28    9   27 1   
    29    9   28 1   
    30    9   29 1   
    31   10   30 1   
    32   10   31 1   
@<TRIPOS>SUBSTRUCTURE
     1 R0_         1 TEMP              0 ****  ****    0 ROOT
