@<TRIPOS>MOLECULE
methyl_propyl_ether
   15    14     1     0     0
SMALL
No Charge or Current Charge


@<TRIPOS>ATOM
      1 C1         -0.0090   -0.6550    0.8770 c3        1 MOL     -0.089100
      2 C2          2.5590   -1.9230    4.8100 c3        1 MOL      0.118600
      3 C3          1.2440   -0.4430    1.7060 c3        1 MOL     -0.100800
      4 C4          1.2750   -1.3490    2.9270 c3        1 MOL      0.129000
      5 O1          2.4630   -1.0900    3.6620 os        1 MOL     -0.421800
      6 H1         -0.9080   -0.4410    1.4640 hc        1 MOL      0.034500
      7 H2         -0.0060    0.0090    0.0070 hc        1 MOL      0.034500
      8 H3         -0.0720   -1.6870    0.5170 hc        1 MOL      0.034500
      9 H4          1.6490   -1.8290    5.4060 h1        1 MOL      0.030500
     10 H5          3.4280   -1.6270    5.4040 h1        1 MOL      0.030500
     11 H6          2.6760   -2.9600    4.4880 h1        1 MOL      0.030500
     12 H7          1.3080    0.6040    2.0230 hc        1 MOL      0.047000
     13 H8          2.1330   -0.6260    1.0900 hc        1 MOL      0.047000
     14 H9          0.4150   -1.1590    3.5770 h1        1 MOL      0.037400
     15 H10         1.2710   -2.4040    2.6320 h1        1 MOL      0.037400
@<TRIPOS>BOND
     1    1    3 1   
     2    2    5 1   
     3    3    4 1   
     4    4    5 1   
     5    1    6 1   
     6    1    7 1   
     7    1    8 1   
     8    2    9 1   
     9    2   10 1   
    10    2   11 1   
    11    3   12 1   
    12    3   13 1   
    13    4   14 1   
    14    4   15 1   
@<TRIPOS>SUBSTRUCTURE
     1 R0_         1 TEMP              0 ****  ****    0 ROOT
