@<TRIPOS>MOLECULE
di_n_propyl_sulfide
   21    20     1     0     0
SMALL
No Charge or Current Charge


@<TRIPOS>ATOM
      1 C1         -0.3670   -0.3200    3.3260 c3        1 MOL     -0.091700
      2 C2          6.2010   -3.4170    0.6460 c3        1 MOL     -0.091700
      3 C3          1.1200   -0.3490    3.6470 c3        1 MOL     -0.076400
      4 C4          5.7180   -2.5110    1.7690 c3        1 MOL     -0.076400
      5 C5          1.8810   -1.2100    2.6450 c3        1 MOL     -0.008700
      6 C6          4.2090   -2.3030    1.6970 c3        1 MOL     -0.008700
      7 S1          3.6530   -1.2290    3.0400 ss        1 MOL     -0.313700
      8 H1         -0.7950   -1.3270    3.3600 hc        1 MOL      0.035800
      9 H2         -0.9000    0.3000    4.0540 hc        1 MOL      0.035800
     10 H3         -0.5450    0.0970    2.3300 hc        1 MOL      0.035800
     11 H4          5.9710   -2.9840   -0.3330 hc        1 MOL      0.035800
     12 H5          7.2840   -3.5560    0.7110 hc        1 MOL      0.035800
     13 H6          5.7280   -4.4030    0.7060 hc        1 MOL      0.035800
     14 H7          1.2530   -0.7380    4.6640 hc        1 MOL      0.044800
     15 H8          1.5020    0.6790    3.6360 hc        1 MOL      0.044800
     16 H9          6.2400   -1.5500    1.6950 hc        1 MOL      0.044800
     17 H10         5.9950   -2.9630    2.7290 hc        1 MOL      0.044800
     18 H11         1.5110   -2.2400    2.6610 h1        1 MOL      0.068300
     19 H12         1.7570   -0.8210    1.6290 h1        1 MOL      0.068300
     20 H13         3.9290   -1.8410    0.7450 h1        1 MOL      0.068300
     21 H14         3.6830   -3.2600    1.7770 h1        1 MOL      0.068300
@<TRIPOS>BOND
     1    1    3 1   
     2    2    4 1   
     3    3    5 1   
     4    4    6 1   
     5    5    7 1   
     6    6    7 1   
     7    1    8 1   
     8    1    9 1   
     9    1   10 1   
    10    2   11 1   
    11    2   12 1   
    12    2   13 1   
    13    3   14 1   
    14    3   15 1   
    15    4   16 1   
    16    4   17 1   
    17    5   18 1   
    18    5   19 1   
    19    6   20 1   
    20    6   21 1   
@<TRIPOS>SUBSTRUCTURE
     1 R0_         1 TEMP              0 ****  ****    0 ROOT
