@<TRIPOS>MOLECULE
26_dimethylaniline
   20    20     1     0     0
SMALL
No Charge or Current Charge


@<TRIPOS>ATOM
      1 C1          1.8850   -1.0380   -0.1090 ca        1 MOL     -0.167800
      2 C2          0.8180   -0.4410    0.5630 ca        1 MOL     -0.096700
      3 C3          2.9350   -1.6040    0.6140 ca        1 MOL     -0.096700
      4 C4          0.8010   -0.4100    1.9570 ca        1 MOL     -0.127100
      5 C5          2.9180   -1.5730    2.0080 ca        1 MOL     -0.127100
      6 C6          1.8510   -0.9770    2.6800 ca        1 MOL      0.142800
      7 C7         -0.3560    0.2350    2.6480 c3        1 MOL     -0.053900
      8 C8          4.0570   -2.1880    2.7550 c3        1 MOL     -0.053900
      9 N1          1.8330   -0.9470    4.0940 nh        1 MOL     -0.821100
     10 H1          1.8980   -1.0610   -1.1950 ha        1 MOL      0.130300
     11 H2          0.0040   -0.0030   -0.0100 ha        1 MOL      0.128300
     12 H3          3.7610   -2.0660    0.0810 ha        1 MOL      0.128300
     13 H4         -0.3100    0.0410    3.7260 hc        1 MOL      0.039500
     14 H5         -0.3570    1.3200    2.4880 hc        1 MOL      0.039500
     15 H6         -1.3100   -0.1460    2.2640 hc        1 MOL      0.039500
     16 H7          4.5600   -1.4320    3.3680 hc        1 MOL      0.039500
     17 H8          3.7100   -2.9960    3.4100 hc        1 MOL      0.039500
     18 H9          4.7900   -2.6260    2.0670 hc        1 MOL      0.039500
     19 H10         2.4320   -1.5650    4.5980 hn        1 MOL      0.388900
     20 H11         1.1570   -0.3780    4.5570 hn        1 MOL      0.388900
@<TRIPOS>BOND
     1    1    2 ar  
     2    1    3 ar  
     3    2    4 ar  
     4    3    5 ar  
     5    4    6 ar  
     6    4    7 1   
     7    5    6 ar  
     8    5    8 1   
     9    6    9 1   
    10    1   10 1   
    11    2   11 1   
    12    3   12 1   
    13    7   13 1   
    14    7   14 1   
    15    7   15 1   
    16    8   16 1   
    17    8   17 1   
    18    8   18 1   
    19    9   19 1   
    20    9   20 1   
@<TRIPOS>SUBSTRUCTURE
     1 R0_         1 TEMP              0 ****  ****    0 ROOT
