@<TRIPOS>MOLECULE
4_n_propylphenol
   22    22     1     0     0
SMALL
No Charge or Current Charge


@<TRIPOS>ATOM
      1 C1          0.8180   -0.4390    0.5640 ca        1 MOL     -0.092200
      2 C2          2.9370   -1.5970    0.6200 ca        1 MOL     -0.092200
      3 C3          0.7990   -0.4060    1.9590 ca        1 MOL     -0.182900
      4 C4          2.9180   -1.5650    2.0140 ca        1 MOL     -0.182900
      5 C5          1.8870   -1.0340   -0.1050 ca        1 MOL     -0.101100
      6 C6          1.8500   -0.9690    2.6840 ca        1 MOL      0.119900
      7 C7          1.2280   -2.3400   -3.6780 c3        1 MOL     -0.090800
      8 C8          1.9070   -1.0680   -1.5960 c3        1 MOL     -0.040300
      9 C9          1.2340   -2.3280   -2.1580 c3        1 MOL     -0.073600
     10 O1          1.8300   -0.9380    4.0440 oh        1 MOL     -0.500100
     11 H1         -0.0040    0.0040    0.0080 ha        1 MOL      0.133700
     12 H2          3.7740   -2.0630    0.1060 ha        1 MOL      0.133700
     13 H3         -0.0350    0.0600    2.4750 ha        1 MOL      0.140800
     14 H4          3.7400   -2.0040    2.5730 ha        1 MOL      0.140800
     15 H5          0.6850   -1.4760   -4.0750 hc        1 MOL      0.033200
     16 H6          2.2480   -2.3170   -4.0740 hc        1 MOL      0.033200
     17 H7          0.7400   -3.2470   -4.0490 hc        1 MOL      0.033200
     18 H8          1.4090   -0.1730   -2.0030 hc        1 MOL      0.044800
     19 H9          2.9460   -1.0120   -1.9630 hc        1 MOL      0.044800
     20 H10         1.7540   -3.2230   -1.7940 hc        1 MOL      0.039700
     21 H11         0.2010   -2.3920   -1.7940 hc        1 MOL      0.039700
     22 H12         1.1750   -0.2780    4.3350 ho        1 MOL      0.418600
@<TRIPOS>BOND
     1    1    3 ar  
     2    1    5 ar  
     3    2    4 ar  
     4    2    5 ar  
     5    3    6 ar  
     6    4    6 ar  
     7    5    8 1   
     8    6   10 1   
     9    7    9 1   
    10    8    9 1   
    11    1   11 1   
    12    2   12 1   
    13    3   13 1   
    14    4   14 1   
    15    7   15 1   
    16    7   16 1   
    17    7   17 1   
    18    8   18 1   
    19    8   19 1   
    20    9   20 1   
    21    9   21 1   
    22   10   22 1   
@<TRIPOS>SUBSTRUCTURE
     1 R0_         1 TEMP              0 ****  ****    0 ROOT
