@<TRIPOS>MOLECULE
2_naphthol
   19    20     1     0     0
SMALL
No Charge or Current Charge


@<TRIPOS>ATOM
      1 C1         -0.5710   -2.0560    0.2750 ca        1 MOL     -0.138800
      2 C2          0.3370   -1.0320    0.0230 ca        1 MOL     -0.116500
      3 C3         -0.1390   -3.3820    0.3040 ca        1 MOL     -0.105700
      4 C4          1.6820   -1.3310   -0.2010 ca        1 MOL     -0.129400
      5 C5          1.6630   -5.0300    0.1060 ca        1 MOL     -0.088300
      6 C6          3.0080   -5.3280   -0.1180 ca        1 MOL     -0.141700
      7 C7          3.4840   -2.9790   -0.3990 ca        1 MOL     -0.219300
      8 C8          1.2100   -3.7010    0.0800 ca        1 MOL     -0.065800
      9 C9          2.1350   -2.6600   -0.1750 ca        1 MOL      0.002000
     10 C10         3.9170   -4.3050   -0.3700 ca        1 MOL      0.131200
     11 O1          5.2280   -4.5970   -0.5870 oh        1 MOL     -0.498700
     12 H1         -1.6170   -1.8220    0.4490 ha        1 MOL      0.132400
     13 H2          0.0000    0.0000    0.0010 ha        1 MOL      0.131700
     14 H3         -0.8670   -4.1670    0.5010 ha        1 MOL      0.131600
     15 H4          2.3740   -0.5140   -0.3960 ha        1 MOL      0.131800
     16 H5          0.9710   -5.8460    0.2990 ha        1 MOL      0.136400
     17 H6          3.3390   -6.3630   -0.0940 ha        1 MOL      0.151600
     18 H7          4.2070   -2.1900   -0.5980 ha        1 MOL      0.135300
     19 H8          5.6980   -4.5900    0.2670 ho        1 MOL      0.420300
@<TRIPOS>BOND
     1    1    2 ar  
     2    1    3 ar  
     3    2    4 ar  
     4    3    8 ar  
     5    4    9 ar  
     6    5    6 ar  
     7    5    8 ar  
     8    6   10 ar  
     9    7    9 ar  
    10    7   10 ar  
    11    8    9 ar  
    12   10   11 1   
    13    1   12 1   
    14    2   13 1   
    15    3   14 1   
    16    4   15 1   
    17    5   16 1   
    18    6   17 1   
    19    7   18 1   
    20   11   19 1   
@<TRIPOS>SUBSTRUCTURE
     1 R0_         1 TEMP              0 ****  ****    0 ROOT
