@<TRIPOS>MOLECULE
formaldehyde
    4     3     1     0     0
SMALL
No Charge or Current Charge


@<TRIPOS>ATOM
      1 C1         -0.4870   -0.0360    0.9870 c         1 MOL      0.560000
      2 O1         -1.0700   -1.0340    1.3930 o         1 MOL     -0.512700
      3 H1         -0.4160    0.8860    1.5860 h4        1 MOL     -0.023600
      4 H2          0.0000    0.0000    0.0000 h4        1 MOL     -0.023600
@<TRIPOS>BOND
     1    1    2 2   
     2    1    3 1   
     3    1    4 1   
@<TRIPOS>SUBSTRUCTURE
     1 R0_         1 TEMP              0 ****  ****    0 ROOT
