@<TRIPOS>MOLECULE
1_iodobutane
   14    13     1     0     0
SMALL
No Charge or Current Charge


@<TRIPOS>ATOM
      1 C1         -0.0300    0.4280    1.0060 c3        1 MOL     -0.091700
      2 C2          0.7900   -0.4200    1.9650 c3        1 MOL     -0.080500
      3 C3          0.7700    0.1560    3.3810 c3        1 MOL     -0.072500
      4 C4          1.5650   -0.7250    4.3450 c3        1 MOL      0.073500
      5 I1          1.5000    0.0760    6.3270 i         1 MOL     -0.258000
      6 H1          0.3610    1.4500    0.9530 hc        1 MOL      0.034400
      7 H2          0.0000    0.0000    0.0000 hc        1 MOL      0.034400
      8 H3         -1.0770    0.4770    1.3240 hc        1 MOL      0.034400
      9 H4          1.8230   -0.4770    1.6000 hc        1 MOL      0.042500
     10 H5          0.3920   -1.4410    1.9720 hc        1 MOL      0.042500
     11 H6          1.1890    1.1700    3.3670 hc        1 MOL      0.050400
     12 H7         -0.2680    0.2450    3.7230 hc        1 MOL      0.050400
     13 H8          2.6070   -0.7950    4.0170 h1        1 MOL      0.070200
     14 H9          1.1550   -1.7410    4.3510 h1        1 MOL      0.070200
@<TRIPOS>BOND
     1    1    2 1   
     2    2    3 1   
     3    3    4 1   
     4    4    5 1   
     5    1    6 1   
     6    1    7 1   
     7    1    8 1   
     8    2    9 1   
     9    2   10 1   
    10    3   11 1   
    11    3   12 1   
    12    4   13 1   
    13    4   14 1   
@<TRIPOS>SUBSTRUCTURE
     1 R0_         1 TEMP              0 ****  ****    0 ROOT
