@<TRIPOS>MOLECULE
3_methoxyphenol
   17    17     1     0     0
SMALL
No Charge or Current Charge


@<TRIPOS>ATOM
      1 C1          0.8320   -0.3950    0.5750 ca        1 MOL     -0.060200
      2 C2          1.8990   -1.0140   -0.0770 ca        1 MOL     -0.248100
      3 C3          0.8350   -0.2830    1.9660 ca        1 MOL     -0.214600
      4 C4          2.9710   -1.4090    2.0520 ca        1 MOL     -0.211100
      5 C5          2.9680   -1.5200    0.6620 ca        1 MOL      0.155900
      6 C6          1.9040   -0.7900    2.7040 ca        1 MOL      0.157000
      7 C7          0.7840   -0.0380    4.6620 c3        1 MOL      0.116700
      8 O1          4.0090   -2.1250    0.0260 oh        1 MOL     -0.498300
      9 O2          1.9060   -0.6810    4.0610 os        1 MOL     -0.326600
     10 H1         -0.0010   -0.0010    0.0010 ha        1 MOL      0.134000
     11 H2          1.8910   -1.0980   -1.1600 ha        1 MOL      0.134500
     12 H3          0.0010    0.1990    2.4680 ha        1 MOL      0.144600
     13 H4          3.8040   -1.8040    2.6280 ha        1 MOL      0.160800
     14 H5         -0.0030   -0.7730    4.8470 h1        1 MOL      0.044700
     15 H6          0.4140    0.7480    3.9990 h1        1 MOL      0.044700
     16 H7          1.0950    0.4060    5.6110 h1        1 MOL      0.044700
     17 H8          4.6600   -2.4130    0.6910 ho        1 MOL      0.421100
@<TRIPOS>BOND
     1    1    2 ar  
     2    1    3 ar  
     3    2    5 ar  
     4    3    6 ar  
     5    4    5 ar  
     6    4    6 ar  
     7    5    8 1   
     8    6    9 1   
     9    7    9 1   
    10    1   10 1   
    11    2   11 1   
    12    3   12 1   
    13    4   13 1   
    14    7   14 1   
    15    7   15 1   
    16    7   16 1   
    17    8   17 1   
@<TRIPOS>SUBSTRUCTURE
     1 R0_         1 TEMP              0 ****  ****    0 ROOT
