@<TRIPOS>MOLECULE
SAMPL4_004
   29    28     1     0     0
SMALL
bcc


@<TRIPOS>ATOM
      1 C1          0.5200   -2.0710   -2.4210 c2        1 MOL     -0.175200
      2 C2          1.1380   -1.7950    1.2400 c2        1 MOL     -0.176200
      3 C3          0.3610   -0.8760   -3.0210 c2        1 MOL     -0.126400
      4 C4          0.0010   -2.1020    0.5850 c2        1 MOL     -0.115400
      5 C5          1.5440   -0.1660   -3.6260 c3        1 MOL     -0.057400
      6 C6         -0.9370   -0.1300   -3.1440 c3        1 MOL     -0.057400
      7 C7         -1.2240   -1.2420    0.7600 c3        1 MOL     -0.061900
      8 C8         -0.5300   -2.9300   -1.7710 c3        1 MOL     -0.040200
      9 C9          1.3820   -0.6550    2.1760 c3        1 MOL      0.164600
     10 C10        -0.1770   -3.2990   -0.3250 c3        1 MOL     -0.039200
     11 O1          2.4580    0.1240    1.6710 oh        1 MOL     -0.599800
     12 H1          1.5220   -2.4980   -2.3900 ha        1 MOL      0.129000
     13 H2          1.9970   -2.4530    1.1080 ha        1 MOL      0.145000
     14 H3          1.6670   -0.4610   -4.6730 hc        1 MOL      0.039867
     15 H4          1.4370    0.9230   -3.5980 hc        1 MOL      0.039867
     16 H5          2.4590   -0.4240   -3.0820 hc        1 MOL      0.039867
     17 H6         -1.0740    0.5300   -2.2810 hc        1 MOL      0.039867
     18 H7         -1.0060    0.4850   -4.0430 hc        1 MOL      0.039867
     19 H8         -1.7730   -0.8360   -3.1730 hc        1 MOL      0.039867
     20 H9         -1.2350   -0.4410    0.0130 hc        1 MOL      0.041700
     21 H10        -1.2400   -0.7890    1.7560 hc        1 MOL      0.041700
     22 H11        -2.1530   -1.8110    0.6440 hc        1 MOL      0.041700
     23 H12        -1.5250   -2.4800   -1.8220 hc        1 MOL      0.047200
     24 H13        -0.6010   -3.8560   -2.3560 hc        1 MOL      0.047200
     25 H14         1.6690   -1.0460    3.1580 h1        1 MOL      0.028200
     26 H15         0.5170   -0.0020    2.3100 h1        1 MOL      0.028200
     27 H16        -0.9840   -3.9230    0.0830 hc        1 MOL      0.047700
     28 H17         0.7060   -3.9470   -0.3110 hc        1 MOL      0.047700
     29 H18         2.5930    0.8540    2.2970 ho        1 MOL      0.399000
@<TRIPOS>BOND
     1    1    3 2   
     2    1    8 1   
     3    2    4 2   
     4    2    9 1   
     5    3    5 1   
     6    3    6 1   
     7    4    7 1   
     8    4   10 1   
     9    8   10 1   
    10    9   11 1   
    11    1   12 1   
    12    2   13 1   
    13    5   14 1   
    14    5   15 1   
    15    5   16 1   
    16    6   17 1   
    17    6   18 1   
    18    6   19 1   
    19    7   20 1   
    20    7   21 1   
    21    7   22 1   
    22    8   23 1   
    23    8   24 1   
    24    9   25 1   
    25    9   26 1   
    26   10   27 1   
    27   10   28 1   
    28   11   29 1   
@<TRIPOS>SUBSTRUCTURE
     1 TMP         1 TEMP              0 ****  ****    0 ROOT
