@<TRIPOS>MOLECULE
CUP08050_AM1BCC_v1_0
   25    25     1     0     0
SMALL
No Charge or Current Charge


@<TRIPOS>ATOM
      1 C1          2.2910   -1.7060   -0.6570 ca        1 MOL      0.944800
      2 C2          3.0670   -1.7940   -2.7840 ca        1 MOL      0.944800
      3 C3          1.0640   -2.5700   -2.2750 ca        1 MOL      0.809900
      4 C4          3.7630   -1.1270    2.6920 c3        1 MOL     -0.111900
      5 C5          5.8350   -0.2230   -4.6760 c3        1 MOL     -0.111900
      6 C6          3.7750   -1.4580    1.2070 c3        1 MOL      0.228700
      7 C7          4.8530   -0.3820   -3.5260 c3        1 MOL      0.228700
      8 N1          3.2710   -1.4500   -1.5170 nb        1 MOL     -0.847000
      9 N2          1.1500   -2.2780   -0.9870 nb        1 MOL     -0.818400
     10 N3          1.9620   -2.3620   -3.2260 nb        1 MOL     -0.818400
     11 N4          2.4240   -1.3590    0.6820 nh        1 MOL     -0.862400
     12 N5          4.0520   -1.5740   -3.7390 nh        1 MOL     -0.862400
     13 Cl1        -0.3950   -3.3090   -2.7760 cl        1 MOL     -0.119700
     14 H1          3.3810   -0.1150    2.8650 hc        1 MOL      0.045700
     15 H2          3.1250   -1.8250    3.2450 hc        1 MOL      0.045700
     16 H3          4.7740   -1.1880    3.1040 hc        1 MOL      0.045700
     17 H4          6.4990   -1.0910   -4.7470 hc        1 MOL      0.045700
     18 H5          5.3090   -0.1250   -5.6320 hc        1 MOL      0.045700
     19 H6          6.4510    0.6700   -4.5320 hc        1 MOL      0.045700
     20 H7          4.1700   -2.4710    1.0690 h1        1 MOL      0.051900
     21 H8          4.4430   -0.7530    0.6990 h1        1 MOL      0.051900
     22 H9          4.2150    0.5090   -3.4750 h1        1 MOL      0.051900
     23 H10         5.4210   -0.4550   -2.5910 h1        1 MOL      0.051900
     24 H11         1.7200   -1.8850    1.1890 hn        1 MOL      0.456500
     25 H12         3.5970   -1.6370   -4.6440 hn        1 MOL      0.456500
@<TRIPOS>BOND
     1    1    8 ar  
     2    1    9 ar  
     3    1   11 1   
     4    2    8 ar  
     5    2   10 ar  
     6    2   12 1   
     7    3    9 ar  
     8    3   10 ar  
     9    3   13 1   
    10    4    6 1   
    11    5    7 1   
    12    6   11 1   
    13    7   12 1   
    14    4   14 1   
    15    4   15 1   
    16    4   16 1   
    17    5   17 1   
    18    5   18 1   
    19    5   19 1   
    20    6   20 1   
    21    6   21 1   
    22    7   22 1   
    23    7   23 1   
    24   11   24 1   
    25   12   25 1   
@<TRIPOS>SUBSTRUCTURE
     1 R0_         1 TEMP              0 ****  ****    0 ROOT
