@<TRIPOS>MOLECULE
acetylsalicylic
   21    21     1     0     0
SMALL
No Charge or Current Charge


@<TRIPOS>ATOM
      1 C1          1.8850   -1.0360   -0.1120 ca        1 MOL     -0.154200
      2 C2          0.8070   -0.4630    0.5610 ca        1 MOL     -0.081300
      3 C3          2.9210   -1.6310    0.6080 ca        1 MOL     -0.057600
      4 C4          0.7640   -0.4840    1.9550 ca        1 MOL     -0.147100
      5 C5          2.8780   -1.6520    2.0020 ca        1 MOL     -0.146900
      6 C6          1.8000   -1.0790    2.6760 ca        1 MOL      0.179900
      7 C7          3.9700   -2.2780    2.7350 c         1 MOL      0.666100
      8 C8          1.0950   -2.2150    4.5730 c         1 MOL      0.665000
      9 C9          1.0800   -2.1330    6.0700 c3        1 MOL     -0.147600
     10 O1          4.3540   -1.9510    3.8610 o         1 MOL     -0.564400
     11 O2          0.6090   -3.1360    3.9290 o         1 MOL     -0.517400
     12 O3          4.5470   -3.2940    2.0380 oh        1 MOL     -0.605300
     13 O4          1.7390   -1.0890    4.0370 os        1 MOL     -0.381400
     14 H1          1.9180   -1.0200   -1.1980 ha        1 MOL      0.142400
     15 H2         -0.0000   -0.0000   -0.0000 ha        1 MOL      0.141700
     16 H3          3.7560   -2.0740    0.0720 ha        1 MOL      0.158300
     17 H4         -0.0800   -0.0360    2.4730 ha        1 MOL      0.154000
     18 H5          1.9750   -2.6120    6.4770 hc        1 MOL      0.098300
     19 H6          0.2000   -2.6580    6.4530 hc        1 MOL      0.074900
     20 H7          1.0260   -1.0870    6.3830 hc        1 MOL      0.074600
     21 H8          5.2840   -3.7230    2.5240 ho        1 MOL      0.448200
@<TRIPOS>BOND
     1    1    2 ar  
     2    1    3 ar  
     3    2    4 ar  
     4    3    5 ar  
     5    4    6 ar  
     6    5    6 ar  
     7    5    7 1   
     8    6   13 1   
     9    7   10 2   
    10    7   12 1   
    11    8    9 1   
    12    8   11 2   
    13    8   13 1   
    14    1   14 1   
    15    2   15 1   
    16    3   16 1   
    17    4   17 1   
    18    9   18 1   
    19    9   19 1   
    20    9   20 1   
    21   12   21 1   
@<TRIPOS>SUBSTRUCTURE
     1 ASA         1 TEMP              0 ****  ****    0 ROOT
