@<TRIPOS>MOLECULE
1,2,3,4-tetrachloro-5-(2,3,4,6-tetrachlorophenyl)benzene
   22    23     1     0     0
SMALL
No Charge or Current Charge


@<TRIPOS>ATOM
      1 C1          1.8850   -1.0360   -0.1120 ca        1 MOL     -0.084600
      2 C2         -2.3430   -0.0640   -1.4170 ca        1 MOL     -0.118900
      3 C3          0.8070   -0.4630    0.5610 cp        1 MOL     -0.029100
      4 C4         -0.2450    0.1410   -0.2380 cp        1 MOL     -0.034000
      5 C5          2.9210   -1.6310    0.6080 ca        1 MOL      0.018700
      6 C6         -1.3280   -0.6340   -0.6500 ca        1 MOL      0.048500
      7 C7         -2.2750    1.2840   -1.7730 ca        1 MOL      0.037300
      8 C8          0.7640   -0.4840    1.9550 ca        1 MOL      0.047600
      9 C9         -0.1760    1.4890   -0.5940 ca        1 MOL      0.049200
     10 C10         2.8780   -1.6520    2.0020 ca        1 MOL      0.031200
     11 C11        -1.1910    2.0590   -1.3610 ca        1 MOL      0.009900
     12 C12         1.8000   -1.0790    2.6760 ca        1 MOL      0.019000
     13 Cl1         4.2240   -2.3210   -0.2990 cl        1 MOL     -0.051600
     14 Cl2        -1.4740   -2.3110   -0.2430 cl        1 MOL     -0.055700
     15 Cl3        -3.5720    1.9190   -2.7270 cl        1 MOL     -0.047300
     16 Cl4        -0.5920    0.2390    2.7760 cl        1 MOL     -0.039900
     17 Cl5         1.1820    2.4490   -0.0740 cl        1 MOL     -0.037800
     18 Cl6         4.1780   -2.3990    2.8880 cl        1 MOL     -0.033900
     19 Cl7        -1.1180    3.7390   -1.8120 cl        1 MOL     -0.033500
     20 Cl8         1.7450   -1.1030    4.4170 cl        1 MOL     -0.034500
     21 H1          1.9180   -1.0200   -1.2010 ha        1 MOL      0.167000
     22 H2         -3.1880   -0.6700   -1.7380 ha        1 MOL      0.172400
@<TRIPOS>BOND
     1    1    3 ar  
     2    1    5 ar  
     3    2    6 ar  
     4    2    7 ar  
     5    3    4 1   
     6    3    8 ar  
     7    4    6 ar  
     8    4    9 ar  
     9    5   10 ar  
    10    5   13 1   
    11    6   14 1   
    12    7   11 ar  
    13    7   15 1   
    14    8   12 ar  
    15    8   16 1   
    16    9   11 ar  
    17    9   17 1   
    18   10   12 ar  
    19   10   18 1   
    20   11   19 1   
    21   12   20 1   
    22    1   21 1   
    23    2   22 1   
@<TRIPOS>SUBSTRUCTURE
     1 MOL         1 TEMP              0 ****  ****    0 ROOT
