@<TRIPOS>MOLECULE
CUP08048_AM1BCC_v1_0
   22    22     1     0     0
SMALL
No Charge or Current Charge


@<TRIPOS>ATOM
      1 C1          1.8270   -1.0100   -0.1200 ca        1 MOL     -0.151300
      2 C2          0.7660   -0.4440    0.5970 ca        1 MOL     -0.090500
      3 C3          2.8800   -1.6470    1.9490 ca        1 MOL     -0.183100
      4 C4          2.8920   -1.6160    0.5480 ca        1 MOL      0.086400
      5 C5          0.7580   -0.4770    1.9920 ca        1 MOL     -0.013600
      6 C6          1.8200   -1.0810    2.6690 ca        1 MOL      0.048000
      7 C7          4.2260   -2.2980   -1.4640 c         1 MOL      0.661700
      8 C8          5.8180   -3.1290   -3.2460 c3        1 MOL     -0.085200
      9 C9          5.5370   -3.0130   -1.7580 c3        1 MOL     -0.148300
     10 N1          3.9960   -2.2080   -0.0990 n         1 MOL     -0.476400
     11 O1          3.4990   -1.8720   -2.3530 o         1 MOL     -0.577200
     12 Cl1        -0.5820    0.2400    2.8110 cl        1 MOL     -0.071100
     13 Cl2         1.8890   -1.1660    4.3950 cl        1 MOL     -0.072300
     14 H1          1.7860   -0.9570   -1.2040 ha        1 MOL      0.182200
     15 H2         -0.0520    0.0230    0.0520 ha        1 MOL      0.154300
     16 H3          3.6960   -2.1130    2.4950 ha        1 MOL      0.146300
     17 H4          5.0250   -3.6880   -3.7530 hc        1 MOL      0.048600
     18 H5          6.7650   -3.6500   -3.4150 hc        1 MOL      0.048600
     19 H6          5.8830   -2.1410   -3.7120 hc        1 MOL      0.048600
     20 H7          6.3510   -2.4580   -1.2770 hc        1 MOL      0.063700
     21 H8          5.4920   -4.0150   -1.3170 hc        1 MOL      0.063700
     22 H9          4.7030   -2.6140    0.5020 hn        1 MOL      0.317000
@<TRIPOS>BOND
     1    1    2 ar  
     2    1    4 ar  
     3    2    5 ar  
     4    3    4 ar  
     5    3    6 ar  
     6    4   10 1   
     7    5    6 ar  
     8    5   12 1   
     9    6   13 1   
    10    7    9 1   
    11    7   10 1   
    12    7   11 2   
    13    8    9 1   
    14    1   14 1   
    15    2   15 1   
    16    3   16 1   
    17    8   17 1   
    18    8   18 1   
    19    8   19 1   
    20    9   20 1   
    21    9   21 1   
    22   10   22 1   
@<TRIPOS>SUBSTRUCTURE
     1 R0_         1 TEMP              0 ****  ****    0 ROOT
