@<TRIPOS>MOLECULE
methylamine
    7     6     1     0     0
SMALL
No Charge or Current Charge


@<TRIPOS>ATOM
      1 C1         -0.7670   -0.6850    0.3710 c3        1 MOL      0.149800
      2 N1         -1.8450   -0.8010   -0.5950 n3        1 MOL     -0.918600
      3 H1         -1.1440   -0.3070    1.3250 h1        1 MOL      0.024800
      4 H2          0.0000    0.0000    0.0000 h1        1 MOL      0.024800
      5 H3         -0.3040   -1.6620    0.5390 h1        1 MOL      0.024800
      6 H4         -2.2870    0.1080   -0.7200 hn        1 MOL      0.347100
      7 H5         -2.5670   -1.4190   -0.2250 hn        1 MOL      0.347100
@<TRIPOS>BOND
     1    1    2 1   
     2    1    3 1   
     3    1    4 1   
     4    1    5 1   
     5    2    6 1   
     6    2    7 1   
@<TRIPOS>SUBSTRUCTURE
     1 R0_         1 TEMP              0 ****  ****    0 ROOT
