@<TRIPOS>MOLECULE
trichloroethene
    6     5     1     0     0
SMALL
No Charge or Current Charge


@<TRIPOS>ATOM
      1 C1          0.0000   -0.0000    0.0000 c2        1 MOL     -0.069100
      2 C2          0.4840   -0.6800   -1.0430 c2        1 MOL      0.061700
      3 Cl1        -0.5670    1.6180   -0.0390 cl        1 MOL     -0.065300
      4 Cl2         1.0400   -2.3120   -0.9350 cl        1 MOL     -0.050900
      5 Cl3         0.5720    0.0810   -2.5940 cl        1 MOL     -0.050900
      6 H1         -0.0830   -0.4150    0.9970 h4        1 MOL      0.174500
@<TRIPOS>BOND
     1    1    2 2   
     2    1    3 1   
     3    2    4 1   
     4    2    5 1   
     5    1    6 1   
@<TRIPOS>SUBSTRUCTURE
     1 R0_         1 TEMP              0 ****  ****    0 ROOT
