@<TRIPOS>MOLECULE
n_propyl_butyrate
   23    22     1     0     0
SMALL
No Charge or Current Charge


@<TRIPOS>ATOM
      1 C1          2.6750   -0.7720    3.1240 c         1 MOL      0.631900
      2 C2         -0.3780   -0.6940    0.7530 c3        1 MOL     -0.093600
      3 C3          7.2660   -1.2980    4.6840 c3        1 MOL     -0.089100
      4 C4          1.8850   -0.8880    1.8410 c3        1 MOL     -0.126000
      5 C5          0.4000   -0.6070    2.0560 c3        1 MOL     -0.075400
      6 C6          6.2760   -1.3340    3.5340 c3        1 MOL     -0.092600
      7 C7          4.8660   -0.9910    3.9910 c3        1 MOL      0.140000
      8 O1          2.2090   -0.4720    4.2150 o         1 MOL     -0.539800
      9 O2          3.9850   -1.0580    2.8640 os        1 MOL     -0.448200
     10 H1         -1.4380   -0.4880    0.9300 hc        1 MOL      0.036900
     11 H2         -0.0070    0.0340    0.0250 hc        1 MOL      0.036900
     12 H3         -0.2950   -1.6930    0.3130 hc        1 MOL      0.036900
     13 H4          6.9910   -2.0180    5.4610 hc        1 MOL      0.036200
     14 H5          8.2700   -1.5490    4.3280 hc        1 MOL      0.036200
     15 H6          7.3050   -0.3020    5.1360 hc        1 MOL      0.036200
     16 H7          2.2960   -0.1720    1.1210 hc        1 MOL      0.076500
     17 H8          2.0160   -1.9030    1.4490 hc        1 MOL      0.076500
     18 H9         -0.0160   -1.3230    2.7740 hc        1 MOL      0.053900
     19 H10         0.2670    0.3910    2.4910 hc        1 MOL      0.053900
     20 H11         6.2800   -2.3280    3.0700 hc        1 MOL      0.051400
     21 H12         6.5890   -0.6340    2.7500 hc        1 MOL      0.051400
     22 H13         4.5170   -1.7000    4.7480 h1        1 MOL      0.055000
     23 H14         4.8250    0.0210    4.4050 h1        1 MOL      0.055000
@<TRIPOS>BOND
     1    1    4 1   
     2    1    8 2   
     3    1    9 1   
     4    2    5 1   
     5    3    6 1   
     6    4    5 1   
     7    6    7 1   
     8    7    9 1   
     9    2   10 1   
    10    2   11 1   
    11    2   12 1   
    12    3   13 1   
    13    3   14 1   
    14    3   15 1   
    15    4   16 1   
    16    4   17 1   
    17    5   18 1   
    18    5   19 1   
    19    6   20 1   
    20    6   21 1   
    21    7   22 1   
    22    7   23 1   
@<TRIPOS>SUBSTRUCTURE
     1 R0_         1 TEMP              0 ****  ****    0 ROOT
