@<TRIPOS>MOLECULE
n_nonane
   29    28     1     0     0
SMALL
No Charge or Current Charge


@<TRIPOS>ATOM
      1 C1          0.5780   -1.9170   -1.3100 c3        1 MOL     -0.089500
      2 C2          6.5710   -5.1290    6.1890 c3        1 MOL     -0.089500
      3 C3          0.8600   -1.8770    0.1840 c3        1 MOL     -0.077400
      4 C4          5.3770   -4.2630    5.8230 c3        1 MOL     -0.077400
      5 C5          2.0370   -2.7580    0.6080 c3        1 MOL     -0.076400
      6 C6          5.0790   -4.3250    4.3250 c3        1 MOL     -0.076400
      7 C7          2.3340   -2.6940    2.1080 c3        1 MOL     -0.076600
      8 C8          3.8560   -3.4790    3.9660 c3        1 MOL     -0.076600
      9 C9          3.5370   -3.5670    2.4730 c3        1 MOL     -0.076700
     10 H1          0.4340   -2.9460   -1.6550 hc        1 MOL      0.031400
     11 H2         -0.3330   -1.3540   -1.5350 hc        1 MOL      0.031400
     12 H3          1.3940   -1.4690   -1.8840 hc        1 MOL      0.031400
     13 H4          6.7680   -5.0680    7.2640 hc        1 MOL      0.031400
     14 H5          7.4720   -4.8000    5.6610 hc        1 MOL      0.031400
     15 H6          6.3880   -6.1780    5.9360 hc        1 MOL      0.031400
     16 H7          1.0380   -0.8410    0.4940 hc        1 MOL      0.036900
     17 H8         -0.0370   -2.2170    0.7170 hc        1 MOL      0.036900
     18 H9          5.5800   -3.2280    6.1200 hc        1 MOL      0.036900
     19 H10         4.5010   -4.5980    6.3910 hc        1 MOL      0.036900
     20 H11         1.8050   -3.7950    0.3330 hc        1 MOL      0.037600
     21 H12         2.9320   -2.4730    0.0420 hc        1 MOL      0.037600
     22 H13         5.9500   -3.9690    3.7620 hc        1 MOL      0.037600
     23 H14         4.9050   -5.3660    4.0270 hc        1 MOL      0.037600
     24 H15         1.4540   -3.0280    2.6720 hc        1 MOL      0.038500
     25 H16         2.5380   -1.6600    2.4060 hc        1 MOL      0.038500
     26 H17         4.0390   -2.4330    4.2420 hc        1 MOL      0.038500
     27 H18         2.9900   -3.8200    4.5470 hc        1 MOL      0.038500
     28 H19         3.3300   -4.6100    2.2030 hc        1 MOL      0.038200
     29 H20         4.4100   -3.2490    1.8910 hc        1 MOL      0.038200
@<TRIPOS>BOND
     1    1    3 1   
     2    2    4 1   
     3    3    5 1   
     4    4    6 1   
     5    5    7 1   
     6    6    8 1   
     7    7    9 1   
     8    8    9 1   
     9    1   10 1   
    10    1   11 1   
    11    1   12 1   
    12    2   13 1   
    13    2   14 1   
    14    2   15 1   
    15    3   16 1   
    16    3   17 1   
    17    4   18 1   
    18    4   19 1   
    19    5   20 1   
    20    5   21 1   
    21    6   22 1   
    22    6   23 1   
    23    7   24 1   
    24    7   25 1   
    25    8   26 1   
    26    8   27 1   
    27    9   28 1   
    28    9   29 1   
@<TRIPOS>SUBSTRUCTURE
     1 R0_         1 TEMP              0 ****  ****    0 ROOT
