@<TRIPOS>MOLECULE
4_isopropyltoluene@0
   24    24     1     0     0
SMALL
No Charge or Current Charge


@<TRIPOS>ATOM
      1 C1          1.3670    0.0950    0.5560 ca        1 MOL     -0.129500
      2 C2          2.3700   -2.0950    0.6090 ca        1 MOL     -0.129500
      3 C3          1.4200    0.1530    1.9520 ca        1 MOL     -0.122900
      4 C4          2.4220   -2.0380    2.0050 ca        1 MOL     -0.122900
      5 C5          1.8300   -1.0350   -0.1260 ca        1 MOL     -0.070900
      6 C6          1.9460   -0.9140    2.6950 ca        1 MOL     -0.068200
      7 C7          1.8050   -1.0820   -1.6230 c3        1 MOL     -0.059400
      8 C8          3.4320   -0.8630    4.7300 c3        1 MOL     -0.084800
      9 C9          1.1490   -1.9250    4.8620 c3        1 MOL     -0.084800
     10 C10         1.9930   -0.8270    4.2090 c3        1 MOL      0.092500
     11 H1          0.9610    0.9410    0.0070 ha        1 MOL      0.129600
     12 H2          2.7530   -2.9770    0.1010 ha        1 MOL      0.129600
     13 H3          1.0480    1.0430    2.4530 ha        1 MOL      0.130500
     14 H4          2.8430   -2.8810    2.5460 ha        1 MOL      0.130500
     15 H5          1.6930   -2.1120   -1.9800 hc        1 MOL      0.042300
     16 H6          0.9600   -0.5090   -2.0180 hc        1 MOL      0.042300
     17 H7          2.7340   -0.6670   -2.0270 hc        1 MOL      0.042300
     18 H8          3.9220   -1.8190    4.5150 hc        1 MOL      0.014200
     19 H9          3.4520   -0.7160    5.8150 hc        1 MOL      0.014200
     20 H10         4.0340   -0.0690    4.2730 hc        1 MOL      0.014200
     21 H11         0.1160   -1.8930    4.4990 hc        1 MOL      0.014200
     22 H12         1.1260   -1.7960    5.9500 hc        1 MOL      0.014200
     23 H13         1.5460   -2.9250    4.6550 hc        1 MOL      0.014200
     24 H14         1.5630    0.1350    4.5180 hc        1 MOL      0.048300
@<TRIPOS>BOND
     1    1    3 ar  
     2    1    5 ar  
     3    1   11 1   
     4    2    4 ar  
     5    2    5 ar  
     6    2   12 1   
     7    3    6 ar  
     8    3   13 1   
     9    4    6 ar  
    10    4   14 1   
    11    5    7 1   
    12    6   10 1   
    13    7   15 1   
    14    7   16 1   
    15    7   17 1   
    16    8   10 1   
    17    8   18 1   
    18    8   19 1   
    19    8   20 1   
    20    9   10 1   
    21    9   21 1   
    22    9   22 1   
    23    9   23 1   
    24   10   24 1   
@<TRIPOS>SUBSTRUCTURE
     1 UNK         1 TEMP              0 ****  ****    0 ROOT
