@<TRIPOS>MOLECULE
CUP08019_AM1BCC_v1_0
   34    34     1     0     0
SMALL
No Charge or Current Charge


@<TRIPOS>ATOM
      1 C1         -0.1060    0.1260    2.3360 ca        1 MOL     -0.080200
      2 C2         -1.2750    0.1240    3.1000 ca        1 MOL     -0.129700
      3 C3         -2.5460   -0.5620    1.1590 ca        1 MOL     -0.129200
      4 C4         -0.1430   -0.2110    0.9730 ca        1 MOL     -0.046800
      5 C5         -2.4880   -0.2180    2.5070 ca        1 MOL      0.036200
      6 C6         -1.3760   -0.5600    0.3940 ca        1 MOL      0.059000
      7 C7          1.7190    0.9210   -0.2060 c2        1 MOL     -0.164700
      8 C8          1.1130   -0.2030    0.2050 ce        1 MOL      0.173600
      9 C9          3.0870   -5.6900   -0.2170 c3        1 MOL     -0.094700
     10 C10         2.4920   -1.2840   -4.8570 c3        1 MOL     -0.094700
     11 C11         3.4570   -4.2260   -0.0960 c3        1 MOL      0.165200
     12 C12         3.2010   -1.6040   -3.5580 c3        1 MOL      0.165200
     13 O1          4.1320   -1.3210   -0.6500 o         1 MOL     -0.766000
     14 O2          1.5810   -1.4750   -0.0520 os        1 MOL     -0.464600
     15 O3          2.7350   -3.4950   -1.0730 os        1 MOL     -0.551200
     16 O4          2.2830   -1.4440   -2.4910 os        1 MOL     -0.551200
     17 P1          2.7960   -1.8850   -1.0260 p5        1 MOL      1.546100
     18 Cl1        -3.9270   -0.2210    3.4510 cl        1 MOL     -0.079200
     19 Cl2        -1.5070   -1.0010   -1.2750 cl        1 MOL     -0.077500
     20 Cl3         1.1440    2.5160    0.0650 cl        1 MOL     -0.068800
     21 H1          0.8370    0.3940    2.8110 ha        1 MOL      0.153800
     22 H2         -1.2310    0.3910    4.1530 ha        1 MOL      0.155300
     23 H3         -3.4960   -0.8290    0.7050 ha        1 MOL      0.164400
     24 H4          2.6430    0.9430   -0.7680 h4        1 MOL      0.188600
     25 H5          2.0110   -5.8290   -0.0660 hc        1 MOL      0.049400
     26 H6          3.3190   -6.0650   -1.2190 hc        1 MOL      0.049400
     27 H7          3.6270   -6.2910    0.5200 hc        1 MOL      0.049400
     28 H8          1.6320   -1.9470   -5.0000 hc        1 MOL      0.049400
     29 H9          2.1050   -0.2600   -4.8440 hc        1 MOL      0.049400
     30 H10         3.1680   -1.3950   -5.7090 hc        1 MOL      0.049400
     31 H11         4.5300   -4.0970   -0.2670 h1        1 MOL      0.048600
     32 H12         3.2100   -3.8610    0.9060 h1        1 MOL      0.048600
     33 H13         4.0460   -0.9240   -3.4120 h1        1 MOL      0.048600
     34 H14         3.5720   -2.6340   -3.5750 h1        1 MOL      0.048600
@<TRIPOS>BOND
     1    1    2 ar  
     2    1    4 ar  
     3    2    5 ar  
     4    3    5 ar  
     5    3    6 ar  
     6    4    6 ar  
     7    4    8 1   
     8    5   18 1   
     9    6   19 1   
    10    7    8 2   
    11    7   20 1   
    12    8   14 1   
    13    9   11 1   
    14   10   12 1   
    15   11   15 1   
    16   12   16 1   
    17   13   17 2   
    18   14   17 1   
    19   15   17 1   
    20   16   17 1   
    21    1   21 1   
    22    2   22 1   
    23    3   23 1   
    24    7   24 1   
    25    9   25 1   
    26    9   26 1   
    27    9   27 1   
    28   10   28 1   
    29   10   29 1   
    30   10   30 1   
    31   11   31 1   
    32   11   32 1   
    33   12   33 1   
    34   12   34 1   
@<TRIPOS>SUBSTRUCTURE
     1 R0_         1 TEMP              0 ****  ****    0 ROOT
