@<TRIPOS>MOLECULE
diethylamine
   16    15     1     0     0
SMALL
No Charge or Current Charge


@<TRIPOS>ATOM
      1 C1         -0.6400    0.2430    3.4650 c3        1 MOL     -0.100400
      2 C2          3.6760   -0.0440    1.1400 c3        1 MOL     -0.100400
      3 C3          0.0820    0.3850    2.1350 c3        1 MOL      0.165400
      4 C4          2.1910    0.2440    0.9990 c3        1 MOL      0.165400
      5 N1          1.5070    0.1160    2.2790 n3        1 MOL     -0.825700
      6 H1         -0.5400   -0.7720    3.8640 hc        1 MOL      0.036500
      7 H2         -0.2450    0.9440    4.2080 hc        1 MOL      0.036500
      8 H3         -1.7070    0.4520    3.3390 hc        1 MOL      0.036500
      9 H4          4.1520    0.6580    1.8330 hc        1 MOL      0.036500
     10 H5          3.8510   -1.0600    1.5080 hc        1 MOL      0.036500
     11 H6          4.1720    0.0530    0.1690 hc        1 MOL      0.036500
     12 H7         -0.0570    1.3970    1.7430 h1        1 MOL      0.029500
     13 H8         -0.3440   -0.3110    1.4050 h1        1 MOL      0.029500
     14 H9          1.7440   -0.4510    0.2810 h1        1 MOL      0.029500
     15 H10         2.0430    1.2570    0.6110 h1        1 MOL      0.029500
     16 H11         1.9070    0.7790    2.9410 hn        1 MOL      0.358600
@<TRIPOS>BOND
     1    1    3 1   
     2    2    4 1   
     3    3    5 1   
     4    4    5 1   
     5    1    6 1   
     6    1    7 1   
     7    1    8 1   
     8    2    9 1   
     9    2   10 1   
    10    2   11 1   
    11    3   12 1   
    12    3   13 1   
    13    4   14 1   
    14    4   15 1   
    15    5   16 1   
@<TRIPOS>SUBSTRUCTURE
     1 R0_         1 TEMP              0 ****  ****    0 ROOT
