@<TRIPOS>MOLECULE
4_cyanopyridine
   12    12     1     0     0
SMALL
No Charge or Current Charge


@<TRIPOS>ATOM
      1 C1          2.2630    0.9330    1.0990 cg        1 MOL      0.223100
      2 C2          0.1830   -0.3460    1.0110 ca        1 MOL     -0.210500
      3 C3          1.5260   -0.4070    3.0050 ca        1 MOL     -0.210500
      4 C4         -0.7040   -1.2000    1.6470 ca        1 MOL      0.393200
      5 C5          0.5790   -1.2580    3.5520 ca        1 MOL      0.393200
      6 C6          1.3170    0.0530    1.7100 ca        1 MOL      0.024700
      7 N1          3.0330    1.6480    0.6030 n1        1 MOL     -0.342000
      8 N2         -0.5340   -1.6670    2.9040 nb        1 MOL     -0.646800
      9 H1         -0.0130   -0.0080   -0.0020 ha        1 MOL      0.156800
     10 H2          2.3980   -0.1170    3.5820 ha        1 MOL      0.156800
     11 H3         -1.6030   -1.5390    1.1450 h4        1 MOL      0.031100
     12 H4          0.6960   -1.6440    4.5590 h4        1 MOL      0.031100
@<TRIPOS>BOND
     1    1    6 1   
     2    1    7 3   
     3    2    4 ar  
     4    2    6 ar  
     5    3    5 ar  
     6    3    6 ar  
     7    4    8 ar  
     8    5    8 ar  
     9    2    9 1   
    10    3   10 1   
    11    4   11 1   
    12    5   12 1   
@<TRIPOS>SUBSTRUCTURE
     1 R0_         1 TEMP              0 ****  ****    0 ROOT
