@<TRIPOS>MOLECULE
2_iodophenol
   13    13     1     0     0
SMALL
No Charge or Current Charge


@<TRIPOS>ATOM
      1 C1          1.8850   -1.0380   -0.1090 ca        1 MOL     -0.078900
      2 C2          0.8180   -0.4410    0.5630 ca        1 MOL     -0.169900
      3 C3          2.9350   -1.6040    0.6140 ca        1 MOL     -0.161400
      4 C4          0.8010   -0.4100    1.9570 ca        1 MOL     -0.062600
      5 C5          2.9180   -1.5730    2.0080 ca        1 MOL      0.164400
      6 C6          1.8510   -0.9770    2.6800 ca        1 MOL     -0.064600
      7 O1          3.9640   -2.1380    2.6770 oh        1 MOL     -0.492100
      8 I1          1.7760   -0.9040    4.7670 i         1 MOL     -0.143200
      9 H1          1.8980   -1.0610   -1.1950 ha        1 MOL      0.138500
     10 H2          0.0000   -0.0010   -0.0000 ha        1 MOL      0.139500
     11 H3          3.7630   -2.0660    0.0840 ha        1 MOL      0.155300
     12 H4         -0.0420    0.0600    2.4580 ha        1 MOL      0.144400
     13 H5          3.8880   -1.9140    3.6210 ho        1 MOL      0.430300
@<TRIPOS>BOND
     1    1    2 ar  
     2    1    3 ar  
     3    2    4 ar  
     4    3    5 ar  
     5    4    6 ar  
     6    5    6 ar  
     7    5    7 1   
     8    6    8 1   
     9    1    9 1   
    10    2   10 1   
    11    3   11 1   
    12    4   12 1   
    13    7   13 1   
@<TRIPOS>SUBSTRUCTURE
     1 R0_         1 TEMP              0 ****  ****    0 ROOT
