@<TRIPOS>MOLECULE
1_methyl_pyrrole
   13    13     1     0     0
SMALL
No Charge or Current Charge


@<TRIPOS>ATOM
      1 C1          1.4340    0.4030    1.6740 cc        1 MOL     -0.196500
      2 C2          0.2540   -0.0700    1.0480 cc        1 MOL     -0.196500
      3 C3          1.3370    0.1030    3.0140 cd        1 MOL     -0.166000
      4 C4         -0.5280   -0.6450    2.0260 cd        1 MOL     -0.166000
      5 C5         -0.3420   -1.0130    4.4920 c3        1 MOL      0.028500
      6 N1          0.1400   -0.5330    3.2170 na        1 MOL     -0.069600
      7 H1          2.2640    0.9070    1.1990 ha        1 MOL      0.149700
      8 H2          0.0010   -0.0010   -0.0000 ha        1 MOL      0.149700
      9 H3          2.0170    0.2900    3.8350 h4        1 MOL      0.161700
     10 H4         -1.4990   -1.1200    1.9720 h4        1 MOL      0.161700
     11 H5          0.4440   -0.8490    5.2340 h1        1 MOL      0.047700
     12 H6         -1.2480   -0.4660    4.7680 h1        1 MOL      0.047700
     13 H7         -0.5770   -2.0780    4.4120 h1        1 MOL      0.047700
@<TRIPOS>BOND
     1    1    2 ar  
     2    1    3 ar  
     3    2    4 ar  
     4    3    6 ar  
     5    4    6 ar  
     6    5    6 1   
     7    1    7 1   
     8    2    8 1   
     9    3    9 1   
    10    4   10 1   
    11    5   11 1   
    12    5   12 1   
    13    5   13 1   
@<TRIPOS>SUBSTRUCTURE
     1 R0_         1 TEMP              0 ****  ****    0 ROOT
