@<TRIPOS>MOLECULE
Z_12_dichloroethene
    6     5     1     0     0
SMALL
No Charge or Current Charge


@<TRIPOS>ATOM
      1 C1          2.0180   -0.6860   -0.1990 c2        1 MOL     -0.074500
      2 C2          0.7540   -0.5140   -0.5800 c2        1 MOL     -0.074500
      3 Cl1         2.6210   -0.0980    1.2930 cl        1 MOL     -0.086200
      4 Cl2        -0.3990    0.3100    0.3810 cl        1 MOL     -0.086200
      5 H1          2.7720   -1.2010   -0.7780 h4        1 MOL      0.160700
      6 H2          0.3390   -0.8710   -1.5130 h4        1 MOL      0.160700
@<TRIPOS>BOND
     1    1    2 2   
     2    1    3 1   
     3    2    4 1   
     4    1    5 1   
     5    2    6 1   
@<TRIPOS>SUBSTRUCTURE
     1 R0_         1 TEMP              0 ****  ****    0 ROOT
