@<TRIPOS>MOLECULE
ZINC01586303
   17    16     1     0     0
SMALL
bcc


@<TRIPOS>ATOM
      1 C1         -6.3090   -7.6540   -2.5390 c3        1 MOL      -0.0932
      2 C2         -5.7390   -6.7260   -1.4780 c3        1 MOL      -0.0794
      3 C3         -5.4080   -7.4810   -0.1920 c3        1 MOL      -0.0806
      4 C4         -4.8350   -6.5440    0.8730 c3        1 MOL      -0.0921
      5 C5         -4.5070   -7.3030    2.1520 c3        1 MOL       0.0387
      6 Cl1        -3.8420   -6.1970    3.3760 cl        1 MOL      -0.2004
      7 H1         -6.5390   -7.0930   -3.4500 hc        1 MOL       0.0352
      8 H2         -5.5940   -8.4420   -2.7960 hc        1 MOL       0.0334
      9 H3         -7.2320   -8.1280   -2.1900 hc        1 MOL       0.0334
     10 H4         -4.8360   -6.2440   -1.8710 hc        1 MOL       0.0411
     11 H5         -6.4650   -5.9320   -1.2680 hc        1 MOL       0.0411
     12 H6         -6.3140   -7.9650    0.1940 hc        1 MOL       0.0416
     13 H7         -4.6850   -8.2770   -0.4090 hc        1 MOL       0.0417
     14 H8         -3.9300   -6.0610    0.4840 hc        1 MOL       0.0563
     15 H9         -5.5590   -5.7490    1.0870 hc        1 MOL       0.0563
     16 H10        -5.4020   -7.7680    2.5760 h1        1 MOL       0.0634
     17 H11        -3.7620   -8.0820    1.9690 h1        1 MOL       0.0634
@<TRIPOS>BOND
     1    1    2 1   
     2    1    7 1   
     3    1    8 1   
     4    1    9 1   
     5    2    3 1   
     6    2   10 1   
     7    2   11 1   
     8    3    4 1   
     9    3   12 1   
    10    3   13 1   
    11    4    5 1   
    12    4   14 1   
    13    4   15 1   
    14    5    6 1   
    15    5   16 1   
    16    5   17 1   
@<TRIPOS>SUBSTRUCTURE
     1 MOL         1 TEMP              0 ****  ****    0 ROOT
