@<TRIPOS>MOLECULE
2_methylhexane
   23    22     1     0     0
SMALL
No Charge or Current Charge


@<TRIPOS>ATOM
      1 C1         -0.5130    0.6360   -0.8560 c3        1 MOL     -0.089600
      2 C2         -5.4960   -0.0480    0.9780 c3        1 MOL     -0.086900
      3 C3         -4.2260    0.2000    3.1200 c3        1 MOL     -0.086900
      4 C4         -1.5840    1.5480   -0.2790 c3        1 MOL     -0.077800
      5 C5         -2.6300    0.7570    0.5080 c3        1 MOL     -0.076400
      6 C6         -3.6830    1.6860    1.1180 c3        1 MOL     -0.072600
      7 C7         -4.7800    0.9410    1.9020 c3        1 MOL     -0.066400
      8 H1          0.2230    1.2220   -1.4150 hc        1 MOL      0.031300
      9 H2          0.0140    0.0980   -0.0610 hc        1 MOL      0.031300
     10 H3         -0.9500   -0.1010   -1.5380 hc        1 MOL      0.031300
     11 H4         -4.8060   -0.8080    0.5980 hc        1 MOL      0.032000
     12 H5         -6.3060   -0.5600    1.5090 hc        1 MOL      0.032000
     13 H6         -5.9370    0.4710    0.1200 hc        1 MOL      0.032000
     14 H7         -3.4290   -0.4950    2.8340 hc        1 MOL      0.032000
     15 H8         -5.0150   -0.3770    3.6150 hc        1 MOL      0.032000
     16 H9         -3.8230    0.8960    3.8610 hc        1 MOL      0.032000
     17 H10        -2.0680    2.0950   -1.0960 hc        1 MOL      0.037000
     18 H11        -1.1090    2.2910    0.3730 hc        1 MOL      0.037000
     19 H12        -3.1070    0.0340   -0.1620 hc        1 MOL      0.038600
     20 H13        -2.1360    0.1880    1.3050 hc        1 MOL      0.038600
     21 H14        -3.1820    2.3890    1.7950 hc        1 MOL      0.037900
     22 H15        -4.1410    2.2890    0.3230 hc        1 MOL      0.037900
     23 H16        -5.5210    1.6710    2.2520 hc        1 MOL      0.043700
@<TRIPOS>BOND
     1    1    4 1   
     2    2    7 1   
     3    3    7 1   
     4    4    5 1   
     5    5    6 1   
     6    6    7 1   
     7    1    8 1   
     8    1    9 1   
     9    1   10 1   
    10    2   11 1   
    11    2   12 1   
    12    2   13 1   
    13    3   14 1   
    14    3   15 1   
    15    3   16 1   
    16    4   17 1   
    17    4   18 1   
    18    5   19 1   
    19    5   20 1   
    20    6   21 1   
    21    6   22 1   
    22    7   23 1   
@<TRIPOS>SUBSTRUCTURE
     1 R0_         1 TEMP              0 ****  ****    0 ROOT
