@<TRIPOS>MOLECULE
CUP08046_AM1BCC_v1_0
   40    41     1     0     0
SMALL
No Charge or Current Charge


@<TRIPOS>ATOM
      1 C1          5.0470   -1.7090   -1.2330 ca        1 MOL      0.006100
      2 C2          6.3390    0.2220   -1.8430 ca        1 MOL      0.006100
      3 C3          6.2760   -1.0410   -1.2390 ca        1 MOL     -0.189500
      4 C4          3.9130   -1.0980   -1.8020 ca        1 MOL     -0.207300
      5 C5          5.1820    0.8040   -2.4060 ca        1 MOL     -0.207300
      6 C6          3.9200    0.1810   -2.3960 ca        1 MOL      0.297700
      7 C7          0.7690    0.3110   -6.1860 cx        1 MOL     -0.125500
      8 C8          0.1920    1.2600   -5.1750 cx        1 MOL     -0.125500
      9 C9          1.2110    0.2330   -4.7450 cx        1 MOL     -0.137600
     10 C10         1.3880    3.1240   -0.2300 c3        1 MOL     -0.089100
     11 C11         2.6120    0.6250   -4.3740 c3        1 MOL      0.223900
     12 C12         1.9920    1.8520   -0.8040 c3        1 MOL     -0.107700
     13 C13         2.2220    1.9750   -2.3120 c3        1 MOL      0.197900
     14 C14         7.5150   -1.6790   -0.6530 c3        1 MOL      0.705000
     15 N1          2.7240    0.7150   -2.9030 nh        1 MOL     -0.691200
     16 N2          2.6800   -1.8570   -1.7500 no        1 MOL      0.320100
     17 N3          5.3770    2.0940   -3.0320 no        1 MOL      0.320100
     18 O1          2.3960   -2.5330   -2.7480 o         1 MOL     -0.186200
     19 O2          2.0540   -1.8350   -0.6810 o         1 MOL     -0.186200
     20 O3          5.4100    2.1210   -4.2690 o         1 MOL     -0.186200
     21 O4          5.5420    3.0610   -2.2780 o         1 MOL     -0.186200
     22 F1          7.2350   -2.6180    0.2890 f         1 MOL     -0.231500
     23 F2          8.2630   -2.3010   -1.6010 f         1 MOL     -0.231500
     24 F3          8.3350   -0.7740   -0.0540 f         1 MOL     -0.231500
     25 H1          4.9640   -2.7010   -0.7850 ha        1 MOL      0.187500
     26 H2          7.2900    0.7560   -1.8790 ha        1 MOL      0.187500
     27 H3          0.1320   -0.4820   -6.5620 hc        1 MOL      0.074300
     28 H4          1.4560    0.7110   -6.9230 hc        1 MOL      0.074300
     29 H5          0.4870    2.3010   -5.2350 hc        1 MOL      0.074300
     30 H6         -0.8360    1.1080   -4.8640 hc        1 MOL      0.074300
     31 H7          0.8660   -0.6260   -4.1800 hc        1 MOL      0.096400
     32 H8          2.0530    3.9790   -0.3910 hc        1 MOL      0.037000
     33 H9          0.4230    3.3460   -0.6950 hc        1 MOL      0.037000
     34 H10         1.2290    3.0150    0.8470 hc        1 MOL      0.037000
     35 H11         2.8890    1.5780   -4.8400 h1        1 MOL      0.055400
     36 H12         3.2880   -0.1430   -4.7740 h1        1 MOL      0.055400
     37 H13         1.3200    1.0100   -0.5980 hc        1 MOL      0.052800
     38 H14         2.9340    1.6450   -0.2840 hc        1 MOL      0.052800
     39 H15         1.2590    2.2220   -2.7750 h1        1 MOL      0.073500
     40 H16         2.8870    2.8150   -2.5360 h1        1 MOL      0.073500
@<TRIPOS>BOND
     1    1    3 ar  
     2    1    4 ar  
     3    2    3 ar  
     4    2    5 ar  
     5    3   14 1   
     6    4    6 ar  
     7    4   16 1   
     8    5    6 ar  
     9    5   17 1   
    10    6   15 1   
    11    7    8 1   
    12    7    9 1   
    13    8    9 1   
    14    9   11 1   
    15   10   12 1   
    16   11   15 1   
    17   12   13 1   
    18   13   15 1   
    19   14   22 1   
    20   14   23 1   
    21   14   24 1   
    22   16   18 1   
    23   16   19 1   
    24   17   20 1   
    25   17   21 1   
    26    1   25 1   
    27    2   26 1   
    28    7   27 1   
    29    7   28 1   
    30    8   29 1   
    31    8   30 1   
    32    9   31 1   
    33   10   32 1   
    34   10   33 1   
    35   10   34 1   
    36   11   35 1   
    37   11   36 1   
    38   12   37 1   
    39   12   38 1   
    40   13   39 1   
    41   13   40 1   
@<TRIPOS>SUBSTRUCTURE
     1 R0_         1 TEMP              0 ****  ****    0 ROOT
