@<TRIPOS>MOLECULE
1,1,1,2-tetrachloroethane
    8     7     1     0     0
SMALL
No Charge or Current Charge


@<TRIPOS>ATOM
      1 C1         -0.2260   -0.3200    0.7150 c3        1 MOL      0.007600
      2 C2          0.1490    0.1840   -0.6820 c3        1 MOL      0.241700
      3 Cl1         0.2860    0.7750    2.0300 cl        1 MOL     -0.134600
      4 Cl2         1.9210    0.3780   -0.8500 cl        1 MOL     -0.096600
      5 Cl3        -0.3950   -1.0250   -1.8940 cl        1 MOL     -0.118000
      6 Cl4        -0.6550    1.7390   -1.0510 cl        1 MOL     -0.097500
      7 H1          0.2330   -1.2930    0.9200 h1        1 MOL      0.098600
      8 H2         -1.3110   -0.4400    0.8120 h1        1 MOL      0.098700
@<TRIPOS>BOND
     1    1    2 1   
     2    1    3 1   
     3    2    4 1   
     4    2    5 1   
     5    2    6 1   
     6    1    7 1   
     7    1    8 1   
@<TRIPOS>SUBSTRUCTURE
     1 MOL         1 TEMP              0 ****  ****    0 ROOT
