@<TRIPOS>MOLECULE
3_chloropyridine
   11    11     1     0     0
SMALL
No Charge or Current Charge


@<TRIPOS>ATOM
      1 C1          0.2060   -0.4420    0.9680 ca        1 MOL     -0.237400
      2 C2          1.3350   -0.0800    1.6950 ca        1 MOL     -0.088500
      3 C3         -0.6460   -1.3850    1.5200 ca        1 MOL      0.393700
      4 C4          0.6600   -1.5970    3.3980 ca        1 MOL      0.403800
      5 C5          1.5730   -0.6640    2.9340 ca        1 MOL     -0.106500
      6 N1         -0.4480   -1.9740    2.7210 nb        1 MOL     -0.654600
      7 Cl1         2.9540   -0.2430    3.8590 cl        1 MOL     -0.074600
      8 H1         -0.0000   -0.0000   -0.0000 ha        1 MOL      0.148500
      9 H2          2.0190    0.6570    1.2840 ha        1 MOL      0.152500
     10 H3         -1.5410   -1.7010    0.9930 h4        1 MOL      0.026900
     11 H4          0.7890   -2.0880    4.3580 h4        1 MOL      0.036400
@<TRIPOS>BOND
     1    1    2 ar  
     2    1    3 ar  
     3    2    5 ar  
     4    3    6 ar  
     5    4    5 ar  
     6    4    6 ar  
     7    5    7 1   
     8    1    8 1   
     9    2    9 1   
    10    3   10 1   
    11    4   11 1   
@<TRIPOS>SUBSTRUCTURE
     1 R0_         1 TEMP              0 ****  ****    0 ROOT
