@<TRIPOS>MOLECULE
23_dimethylpyridine
   17    17     1     0     0
SMALL
No Charge or Current Charge


@<TRIPOS>ATOM
      1 C1          0.1720   -0.3890    0.9970 ca        1 MOL     -0.249400
      2 C2          1.2780    0.0090    1.7400 ca        1 MOL     -0.092100
      3 C3         -0.7010   -1.2990    1.5700 ca        1 MOL      0.394700
      4 C4          1.4730   -0.5070    3.0160 ca        1 MOL     -0.185800
      5 C5          0.5420   -1.4120    3.5000 ca        1 MOL      0.410800
      6 C6          2.6560   -0.0840    3.8180 c3        1 MOL     -0.055200
      7 C7          0.7010   -1.9990    4.8640 c3        1 MOL     -0.145300
      8 N1         -0.5440   -1.8230    2.8070 nb        1 MOL     -0.666200
      9 H1         -0.0000    0.0000    0.0000 ha        1 MOL      0.141900
     10 H2          1.9800    0.7220    1.3170 ha        1 MOL      0.136100
     11 H3         -1.5790   -1.6420    1.0320 h4        1 MOL      0.020300
     12 H4          2.7290    1.0110    3.8450 hc        1 MOL      0.044800
     13 H5          2.5920   -0.4530    4.8500 hc        1 MOL      0.044800
     14 H6          3.5880   -0.4830    3.3960 hc        1 MOL      0.044800
     15 H7          1.4980   -1.4810    5.4090 hc        1 MOL      0.052000
     16 H8         -0.2280   -1.9160    5.4410 hc        1 MOL      0.052000
     17 H9          0.9490   -3.0660    4.8090 hc        1 MOL      0.052000
@<TRIPOS>BOND
     1    1    2 ar  
     2    1    3 ar  
     3    2    4 ar  
     4    3    8 ar  
     5    4    5 ar  
     6    4    6 1   
     7    5    7 1   
     8    5    8 ar  
     9    1    9 1   
    10    2   10 1   
    11    3   11 1   
    12    6   12 1   
    13    6   13 1   
    14    6   14 1   
    15    7   15 1   
    16    7   16 1   
    17    7   17 1   
@<TRIPOS>SUBSTRUCTURE
     1 R0_         1 TEMP              0 ****  ****    0 ROOT
