@<TRIPOS>MOLECULE
dimethyl_ether
    9     8     1     0     0
SMALL
No Charge or Current Charge


@<TRIPOS>ATOM
      1 C1         -0.6100   -0.5150    0.7480 c3        1 MOL      0.117500
      2 C2          1.2890   -1.1660    1.9690 c3        1 MOL      0.117500
      3 O1          0.0350   -0.4990    2.0140 os        1 MOL     -0.421500
      4 H1          0.1360   -0.6360   -0.0410 h1        1 MOL      0.031100
      5 H2         -1.1590    0.4190    0.6060 h1        1 MOL      0.031100
      6 H3         -1.3100   -1.3540    0.7170 h1        1 MOL      0.031100
      7 H4          2.0860   -0.4350    1.8080 h1        1 MOL      0.031100
      8 H5          1.2840   -1.9000    1.1590 h1        1 MOL      0.031100
      9 H6          1.4540   -1.6780    2.9200 h1        1 MOL      0.031100
@<TRIPOS>BOND
     1    1    3 1   
     2    2    3 1   
     3    1    4 1   
     4    1    5 1   
     5    1    6 1   
     6    2    7 1   
     7    2    8 1   
     8    2    9 1   
@<TRIPOS>SUBSTRUCTURE
     1 R0_         1 TEMP              0 ****  ****    0 ROOT
