@<TRIPOS>MOLECULE
135_trichlorobenzene
   12    12     1     0     0
SMALL
No Charge or Current Charge


@<TRIPOS>ATOM
      1 C1          1.8990   -1.0130   -0.0780 ca        1 MOL     -0.122100
      2 C2          0.8130   -0.3270    1.9680 ca        1 MOL     -0.122100
      3 C3          2.9470   -1.4560    2.0530 ca        1 MOL     -0.122100
      4 C4          0.8260   -0.4080    0.5750 ca        1 MOL      0.031600
      5 C5          2.9600   -1.5370    0.6600 ca        1 MOL      0.031600
      6 C6          1.8740   -0.8520    2.7070 ca        1 MOL      0.031600
      7 Cl1        -0.4830    0.2390   -0.3370 cl        1 MOL     -0.075000
      8 Cl2         4.2840   -2.2840   -0.1460 cl        1 MOL     -0.075000
      9 Cl3         1.8570   -0.7530    4.4250 cl        1 MOL     -0.075000
     10 H1          1.9090   -1.0760   -1.1650 ha        1 MOL      0.165600
     11 H2         -0.0240    0.1450    2.4780 ha        1 MOL      0.165600
     12 H3          3.7750   -1.8650    2.6300 ha        1 MOL      0.165600
@<TRIPOS>BOND
     1    1    4 ar  
     2    1    5 ar  
     3    2    4 ar  
     4    2    6 ar  
     5    3    5 ar  
     6    3    6 ar  
     7    4    7 1   
     8    5    8 1   
     9    6    9 1   
    10    1   10 1   
    11    2   11 1   
    12    3   12 1   
@<TRIPOS>SUBSTRUCTURE
     1 R0_         1 TEMP              0 ****  ****    0 ROOT
