@<TRIPOS>MOLECULE
CUP08017_AM1BCC_v1_0
   34    34     1     0     0
SMALL
No Charge or Current Charge


@<TRIPOS>ATOM
      1 C1         -4.7420    1.5980    3.8730 ca        1 MOL     -0.087200
      2 C2         -3.1150    3.3690    3.6300 ca        1 MOL     -0.087200
      3 C3         -5.7660    2.4980    3.5660 ca        1 MOL     -0.122200
      4 C4         -4.1390    4.2690    3.3230 ca        1 MOL     -0.122200
      5 C5         -3.4100    2.0270    3.8950 ca        1 MOL     -0.071800
      6 C6         -5.4600    3.8290    3.2900 ca        1 MOL      0.033100
      7 C7          0.1160   -1.9110   -1.8630 c3        1 MOL     -0.113400
      8 C8         -2.0140   -5.8200    3.4140 c3        1 MOL     -0.113400
      9 C9          0.3650   -1.6080   -0.4000 c3        1 MOL      0.132300
     10 C10        -2.4770   -4.6360    2.5910 c3        1 MOL      0.132300
     11 C11        -2.2380   -0.2450    2.8930 c3        1 MOL      0.114300
     12 O1         -0.0280   -2.7350    0.3670 os        1 MOL     -0.464800
     13 O2         -1.3890   -4.1850    1.7990 os        1 MOL     -0.464800
     14 P1         -1.3860   -2.6480    1.2610 p5        1 MOL      0.639000
     15 S1         -2.9610   -2.2240    0.1920 s         1 MOL     -0.458600
     16 S2         -2.0820    0.9060    4.2890 ss        1 MOL      0.060200
     17 S3         -0.9010   -1.4570    2.9230 ss        1 MOL     -0.341900
     18 Cl1        -6.7220    4.9360    2.9120 cl        1 MOL     -0.080900
     19 H1         -4.9980    0.5680    4.1070 ha        1 MOL      0.146400
     20 H2         -2.0870    3.7250    3.6600 ha        1 MOL      0.146400
     21 H3         -6.7980    2.1560    3.5520 ha        1 MOL      0.154100
     22 H4         -3.8990    5.3090    3.1160 ha        1 MOL      0.154100
     23 H5          0.6950   -2.7850   -2.1790 hc        1 MOL      0.050300
     24 H6         -0.9390   -2.1500   -2.0340 hc        1 MOL      0.050300
     25 H7          0.3910   -1.0600   -2.4910 hc        1 MOL      0.050300
     26 H8         -1.6510   -6.6240    2.7650 hc        1 MOL      0.050300
     27 H9         -1.1810   -5.5360    4.0650 hc        1 MOL      0.050300
     28 H10        -2.8280   -6.2070    4.0340 hc        1 MOL      0.050300
     29 H11        -0.2300   -0.7430   -0.0920 h1        1 MOL      0.075000
     30 H12         1.4240   -1.3830   -0.2420 h1        1 MOL      0.075000
     31 H13        -2.8290   -3.8380    3.2520 h1        1 MOL      0.075000
     32 H14        -3.2970   -4.9370    1.9320 h1        1 MOL      0.075000
     33 H15        -3.1950   -0.7680    2.9510 h2        1 MOL      0.107400
     34 H16        -2.1950    0.3120    1.9540 h2        1 MOL      0.107400
@<TRIPOS>BOND
     1    1    3 ar  
     2    1    5 ar  
     3    2    4 ar  
     4    2    5 ar  
     5    3    6 ar  
     6    4    6 ar  
     7    5   16 1   
     8    6   18 1   
     9    7    9 1   
    10    8   10 1   
    11    9   12 1   
    12   10   13 1   
    13   11   16 1   
    14   11   17 1   
    15   12   14 1   
    16   13   14 1   
    17   14   15 2   
    18   14   17 1   
    19    1   19 1   
    20    2   20 1   
    21    3   21 1   
    22    4   22 1   
    23    7   23 1   
    24    7   24 1   
    25    7   25 1   
    26    8   26 1   
    27    8   27 1   
    28    8   28 1   
    29    9   29 1   
    30    9   30 1   
    31   10   31 1   
    32   10   32 1   
    33   11   33 1   
    34   11   34 1   
@<TRIPOS>SUBSTRUCTURE
     1 R0_         1 TEMP              0 ****  ****    0 ROOT
