@<TRIPOS>MOLECULE
tetrahydropyran
   16    16     1     0     0
SMALL
No Charge or Current Charge


@<TRIPOS>ATOM
      1 C1          0.8370    0.4780    0.5200 c3        1 MOL     -0.074800
      2 C2          0.8030    0.1270    2.0040 c3        1 MOL     -0.110400
      3 C3          0.7810    1.9900    0.3260 c3        1 MOL     -0.110400
      4 C4          1.8520    0.9220    2.7710 c3        1 MOL      0.128400
      5 C5          1.8310    2.6830    1.1860 c3        1 MOL      0.128400
      6 O1          1.6790    2.3230    2.5590 os        1 MOL     -0.416000
      7 H1          1.7600    0.0870    0.0750 hc        1 MOL      0.040700
      8 H2         -0.0000   -0.0000    0.0000 hc        1 MOL      0.040700
      9 H3         -0.1910    0.3710    2.3980 hc        1 MOL      0.048700
     10 H4          0.9600   -0.9480    2.1450 hc        1 MOL      0.048700
     11 H5          0.9240    2.2440   -0.7290 hc        1 MOL      0.048700
     12 H6         -0.2140    2.3430    0.6220 hc        1 MOL      0.048700
     13 H7          1.7520    0.7320    3.8440 h1        1 MOL      0.044600
     14 H8          2.8670    0.6310    2.4750 h1        1 MOL      0.044600
     15 H9          2.8460    2.4340    0.8540 h1        1 MOL      0.044600
     16 H10         1.7160    3.7690    1.1110 h1        1 MOL      0.044600
@<TRIPOS>BOND
     1    1    2 1   
     2    1    3 1   
     3    2    4 1   
     4    3    5 1   
     5    4    6 1   
     6    5    6 1   
     7    1    7 1   
     8    1    8 1   
     9    2    9 1   
    10    2   10 1   
    11    3   11 1   
    12    3   12 1   
    13    4   13 1   
    14    4   14 1   
    15    5   15 1   
    16    5   16 1   
@<TRIPOS>SUBSTRUCTURE
     1 R0_         1 TEMP              0 ****  ****    0 ROOT
