@<TRIPOS>MOLECULE
n_pentylbenzene
   27    27     1     0     0
SMALL
No Charge or Current Charge


@<TRIPOS>ATOM
      1 C1          1.2840   -3.6910   -7.1140 ca        1 MOL     -0.133700
      2 C2          2.2260   -3.1750   -6.2250 ca        1 MOL     -0.128300
      3 C3          0.2660   -2.8730   -7.6050 ca        1 MOL     -0.128300
      4 C4          2.1500   -1.8400   -5.8260 ca        1 MOL     -0.128200
      5 C5          0.1900   -1.5380   -7.2060 ca        1 MOL     -0.128200
      6 C6          1.1330   -1.0380   -6.3210 ca        1 MOL     -0.066100
      7 C7         -0.9740    3.7510   -2.6540 c3        1 MOL     -0.089800
      8 C8          1.0520    0.4050   -5.8890 c3        1 MOL     -0.045300
      9 C9         -0.8060    2.2830   -3.0130 c3        1 MOL     -0.077100
     10 C10         0.2020    0.6280   -4.6330 c3        1 MOL     -0.071900
     11 C11         0.0690    2.1060   -4.2540 c3        1 MOL     -0.078000
     12 H1          1.3430   -4.7300   -7.4250 ha        1 MOL      0.129900
     13 H2          3.0180   -3.8120   -5.8430 ha        1 MOL      0.129700
     14 H3         -0.4680   -3.2750   -8.2970 ha        1 MOL      0.129700
     15 H4          2.8890   -1.4470   -5.1320 ha        1 MOL      0.130400
     16 H5         -0.6060   -0.9080   -7.5930 ha        1 MOL      0.130400
     17 H6         -1.4500    4.3020   -3.4720 hc        1 MOL      0.031700
     18 H7         -1.6030    3.8540   -1.7640 hc        1 MOL      0.031700
     19 H8         -0.0060    4.2160   -2.4430 hc        1 MOL      0.031700
     20 H9          2.0590    0.8100   -5.7310 hc        1 MOL      0.046100
     21 H10         0.6260    0.9860   -6.7170 hc        1 MOL      0.046100
     22 H11        -0.3590    1.7540   -2.1630 hc        1 MOL      0.036800
     23 H12        -1.7940    1.8410   -3.1870 hc        1 MOL      0.036800
     24 H13         0.6180    0.0670   -3.7870 hc        1 MOL      0.041400
     25 H14        -0.7980    0.2180   -4.8210 hc        1 MOL      0.041400
     26 H15         1.0590    2.5350   -4.0600 hc        1 MOL      0.040300
     27 H16        -0.3670    2.6630   -5.0930 hc        1 MOL      0.040300
@<TRIPOS>BOND
     1    1    2 ar  
     2    1    3 ar  
     3    2    4 ar  
     4    3    5 ar  
     5    4    6 ar  
     6    5    6 ar  
     7    6    8 1   
     8    7    9 1   
     9    8   10 1   
    10    9   11 1   
    11   10   11 1   
    12    1   12 1   
    13    2   13 1   
    14    3   14 1   
    15    4   15 1   
    16    5   16 1   
    17    7   17 1   
    18    7   18 1   
    19    7   19 1   
    20    8   20 1   
    21    8   21 1   
    22    9   22 1   
    23    9   23 1   
    24   10   24 1   
    25   10   25 1   
    26   11   26 1   
    27   11   27 1   
@<TRIPOS>SUBSTRUCTURE
     1 R0_         1 TEMP              0 ****  ****    0 ROOT
