@<TRIPOS>MOLECULE
CUP08033_AM1BCC_v1_0
   22    24     1     0     0
SMALL
No Charge or Current Charge


@<TRIPOS>ATOM
      1 C1         -2.0700    0.3630    0.3540 c2        1 MOL     -0.153000
      2 C2         -0.9600   -0.3850    0.3440 c2        1 MOL     -0.163900
      3 C3         -2.7930    0.2820    3.2080 c2        1 MOL     -0.026000
      4 C4         -2.2610   -0.9100    3.5020 c2        1 MOL     -0.045700
      5 C5         -3.2560   -0.4020    0.8510 c3        1 MOL     -0.043000
      6 C6         -1.1770   -1.7880    0.8190 c3        1 MOL      0.082800
      7 C7         -2.6660   -1.8180    1.1940 c3        1 MOL     -0.078800
      8 C8         -3.9070    0.0430    2.2070 c3        1 MOL      0.085100
      9 C9         -3.0230   -1.9560    2.7090 c3        1 MOL      0.083800
     10 C10        -4.4510   -1.3120    2.7590 c3        1 MOL      0.134500
     11 Cl1        -2.2970    1.8060    3.7520 cl        1 MOL     -0.002900
     12 Cl2        -0.9450   -1.2380    4.5160 cl        1 MOL     -0.006400
     13 Cl3        -0.8370   -2.9000   -0.5290 cl        1 MOL     -0.169400
     14 Cl4        -5.0890    1.3290    2.0290 cl        1 MOL     -0.075200
     15 Cl5        -2.9090   -3.6060    3.2960 cl        1 MOL     -0.071200
     16 Cl6        -5.1810   -1.2200    4.4100 cl        1 MOL     -0.090600
     17 Cl7        -5.6830   -2.1090    1.7150 cl        1 MOL     -0.090600
     18 H1         -2.1120    1.3970    0.0340 ha        1 MOL      0.159500
     19 H2          0.0080   -0.0260    0.0150 ha        1 MOL      0.160800
     20 H3         -3.9990   -0.4860    0.0480 hc        1 MOL      0.102300
     21 H4         -0.5090   -2.0540    1.6410 h1        1 MOL      0.097400
     22 H5         -3.1990   -2.5860    0.6180 hc        1 MOL      0.110600
@<TRIPOS>BOND
     1    1    2 2   
     2    1    5 1   
     3    2    6 1   
     4    3    4 2   
     5    3    8 1   
     6    3   11 1   
     7    4    9 1   
     8    4   12 1   
     9    5    7 1   
    10    5    8 1   
    11    6    7 1   
    12    6   13 1   
    13    7    9 1   
    14    8   10 1   
    15    8   14 1   
    16    9   10 1   
    17    9   15 1   
    18   10   16 1   
    19   10   17 1   
    20    1   18 1   
    21    2   19 1   
    22    5   20 1   
    23    6   21 1   
    24    7   22 1   
@<TRIPOS>SUBSTRUCTURE
     1 R0_         1 TEMP              0 ****  ****    0 ROOT
