@<TRIPOS>MOLECULE
SAMPL4_005
   20    20     1     0     0
SMALL
bcc


@<TRIPOS>ATOM
      1 C1          1.8850   -1.0360   -0.1120 ca        1 MOL     -0.129000
      2 C2          0.8070   -0.4630    0.5610 ca        1 MOL     -0.129000
      3 C3          2.9210   -1.6310    0.6080 ca        1 MOL     -0.179000
      4 C4          0.7640   -0.4840    1.9550 ca        1 MOL     -0.179000
      5 C5          2.8780   -1.6520    2.0020 ca        1 MOL      0.102100
      6 C6          1.8000   -1.0790    2.6760 ca        1 MOL      0.102100
      7 C7          4.9610   -2.7970    1.9300 c3        1 MOL      0.110700
      8 C8          0.6100   -0.4840    4.6470 c3        1 MOL      0.110700
      9 O1          3.8970   -2.2350    2.6950 os        1 MOL     -0.304900
     10 O2          1.7470   -1.0920    4.0370 os        1 MOL     -0.304900
     11 H1          1.9180   -1.0200   -1.1980 ha        1 MOL      0.133000
     12 H2          0.0000   -0.0000    0.0000 ha        1 MOL      0.133000
     13 H3          3.7580   -2.0760    0.0770 ha        1 MOL      0.138000
     14 H4         -0.0790   -0.0340    2.4730 ha        1 MOL      0.138000
     15 H5          5.7060   -3.2290    2.6040 h1        1 MOL      0.043033
     16 H6          5.4190   -2.0200    1.3140 h1        1 MOL      0.043033
     17 H7          4.5590   -3.5820    1.2850 h1        1 MOL      0.043033
     18 H8          0.6930   -0.5640    5.7340 h1        1 MOL      0.043033
     19 H9         -0.2990   -0.9830    4.3030 h1        1 MOL      0.043033
     20 H10         0.5750    0.5700    4.3630 h1        1 MOL      0.043033
@<TRIPOS>BOND
     1    1    2 ar  
     2    1    3 ar  
     3    2    4 ar  
     4    3    5 ar  
     5    4    6 ar  
     6    5    6 ar  
     7    5    9 1   
     8    6   10 1   
     9    7    9 1   
    10    8   10 1   
    11    1   11 1   
    12    2   12 1   
    13    3   13 1   
    14    4   14 1   
    15    7   15 1   
    16    7   16 1   
    17    7   17 1   
    18    8   18 1   
    19    8   19 1   
    20    8   20 1   
@<TRIPOS>SUBSTRUCTURE
     1 TMP         1 TEMP              0 ****  ****    0 ROOT
