@<TRIPOS>MOLECULE
4_ethylpyridine
   17    17     1     0     0
SMALL
No Charge or Current Charge


@<TRIPOS>ATOM
      1 C1          0.1830   -0.3460    1.0110 ca        1 MOL     -0.246100
      2 C2          1.5260   -0.4070    3.0050 ca        1 MOL     -0.246100
      3 C3         -0.7040   -1.2000    1.6470 ca        1 MOL      0.394400
      4 C4          0.5790   -1.2580    3.5520 ca        1 MOL      0.394400
      5 C5          1.3170    0.0530    1.7100 ca        1 MOL     -0.029200
      6 C6          3.3950    0.2160    0.3160 c3        1 MOL     -0.086800
      7 C7          2.3050    0.9710    1.0730 c3        1 MOL     -0.051900
      8 N1         -0.5340   -1.6670    2.9040 nb        1 MOL     -0.668200
      9 H1         -0.0080   -0.0050   -0.0010 ha        1 MOL      0.142300
     10 H2          2.4010   -0.1140    3.5760 ha        1 MOL      0.142300
     11 H3         -1.6030   -1.5410    1.1450 h4        1 MOL      0.020700
     12 H4          0.6960   -1.6440    4.5590 h4        1 MOL      0.020700
     13 H5          3.9540   -0.4450    0.9870 hc        1 MOL      0.037800
     14 H6          4.1040    0.9140   -0.1410 hc        1 MOL      0.037800
     15 H7          2.9650   -0.4010   -0.4810 hc        1 MOL      0.037800
     16 H8          1.7970    1.6610    0.3790 hc        1 MOL      0.050000
     17 H9          2.7760    1.6160    1.8320 hc        1 MOL      0.050000
@<TRIPOS>BOND
     1    1    3 ar  
     2    1    5 ar  
     3    2    4 ar  
     4    2    5 ar  
     5    3    8 ar  
     6    4    8 ar  
     7    5    7 1   
     8    6    7 1   
     9    1    9 1   
    10    2   10 1   
    11    3   11 1   
    12    4   12 1   
    13    6   13 1   
    14    6   14 1   
    15    6   15 1   
    16    7   16 1   
    17    7   17 1   
@<TRIPOS>SUBSTRUCTURE
     1 R0_         1 TEMP              0 ****  ****    0 ROOT
