@<TRIPOS>MOLECULE
ZINC01698513
   17    16     1     0     0
SMALL
bcc


@<TRIPOS>ATOM
      1 C1         -5.0440   -7.2750   -3.2750 c3        1 MOL      -0.0924
      2 C2         -5.2060   -6.2520   -2.1620 c3        1 MOL      -0.0803
      3 C3         -3.8950   -6.0350   -1.4060 c3        1 MOL      -0.0794
      4 C4         -4.0620   -5.0060   -0.2890 c3        1 MOL      -0.0802
      5 C5         -2.7600   -4.7870    0.4660 c3        1 MOL      -0.0924
      6 H1         -5.9930   -7.4150   -3.8020 hc        1 MOL       0.0321
      7 H2         -4.2960   -6.9480   -4.0040 hc        1 MOL       0.0323
      8 H3         -4.7330   -8.2450   -2.8740 hc        1 MOL       0.0324
      9 H4         -5.5490   -5.3040   -2.5930 hc        1 MOL       0.0381
     10 H5         -5.9830   -6.5940   -1.4700 hc        1 MOL       0.0381
     11 H6         -3.5540   -6.9870   -0.9810 hc        1 MOL       0.0394
     12 H7         -3.1190   -5.6970   -2.1050 hc        1 MOL       0.0393
     13 H8         -4.3980   -4.0510   -0.7090 hc        1 MOL       0.0381
     14 H9         -4.8330   -5.3410    0.4140 hc        1 MOL       0.0380
     15 H10        -2.9020   -4.0480    1.2600 hc        1 MOL       0.0321
     16 H11        -2.4120   -5.7170    0.9260 hc        1 MOL       0.0324
     17 H12        -1.9750   -4.4200   -0.2030 hc        1 MOL       0.0324
@<TRIPOS>BOND
     1    1    2 1   
     2    1    6 1   
     3    1    7 1   
     4    1    8 1   
     5    2    3 1   
     6    2    9 1   
     7    2   10 1   
     8    3    4 1   
     9    3   11 1   
    10    3   12 1   
    11    4    5 1   
    12    4   13 1   
    13    4   14 1   
    14    5   15 1   
    15    5   16 1   
    16    5   17 1   
@<TRIPOS>SUBSTRUCTURE
     1 MOL         1 TEMP              0 ****  ****    0 ROOT
