@<TRIPOS>MOLECULE
n_hexyl_acetate
   26    25     1     0     0
SMALL
No Charge or Current Charge


@<TRIPOS>ATOM
      1 C1         -4.4670   -0.8100    6.9540 c         1 MOL      0.630300
      2 C2         -5.6980    0.0340    7.0860 c3        1 MOL     -0.145900
      3 C3          1.7830   -1.3580    0.9180 c3        1 MOL     -0.089900
      4 C4          1.1440   -1.8870    2.1930 c3        1 MOL     -0.077600
      5 C5         -0.1230   -1.1070    2.5460 c3        1 MOL     -0.076100
      6 C6         -0.7660   -1.5520    3.8620 c3        1 MOL     -0.075300
      7 C7         -2.0460   -0.7900    4.2020 c3        1 MOL     -0.094500
      8 C8         -2.6300   -1.2440    5.5330 c3        1 MOL      0.139700
      9 O1         -4.1110   -1.6370    7.7820 o         1 MOL     -0.543700
     10 O2         -3.8210   -0.5120    5.7860 os        1 MOL     -0.445900
     11 H1         -6.3820   -0.1750    6.2600 hc        1 MOL      0.074300
     12 H2         -5.4230    1.0920    7.1010 hc        1 MOL      0.074300
     13 H3         -6.2040   -0.2070    8.0260 hc        1 MOL      0.074300
     14 H4          2.6850   -1.9320    0.6800 hc        1 MOL      0.031800
     15 H5          1.0950   -1.4410    0.0710 hc        1 MOL      0.031800
     16 H6          2.0690   -0.3070    1.0280 hc        1 MOL      0.031800
     17 H7          1.8670   -1.8140    3.0140 hc        1 MOL      0.038100
     18 H8          0.9120   -2.9480    2.0540 hc        1 MOL      0.038100
     19 H9         -0.8520   -1.1960    1.7310 hc        1 MOL      0.038500
     20 H10         0.1250   -0.0410    2.6310 hc        1 MOL      0.038500
     21 H11        -0.0360   -1.4010    4.6670 hc        1 MOL      0.043100
     22 H12        -0.9750   -2.6280    3.8230 hc        1 MOL      0.043100
     23 H13        -2.8000   -0.9280    3.4190 hc        1 MOL      0.052300
     24 H14        -1.8470    0.2880    4.2420 hc        1 MOL      0.052300
     25 H15        -2.8750   -2.3110    5.5080 h1        1 MOL      0.058300
     26 H16        -1.9270   -1.0590    6.3520 h1        1 MOL      0.058300
@<TRIPOS>BOND
     1    1    2 1   
     2    1    9 2   
     3    1   10 1   
     4    3    4 1   
     5    4    5 1   
     6    5    6 1   
     7    6    7 1   
     8    7    8 1   
     9    8   10 1   
    10    2   11 1   
    11    2   12 1   
    12    2   13 1   
    13    3   14 1   
    14    3   15 1   
    15    3   16 1   
    16    4   17 1   
    17    4   18 1   
    18    5   19 1   
    19    5   20 1   
    20    6   21 1   
    21    6   22 1   
    22    7   23 1   
    23    7   24 1   
    24    8   25 1   
    25    8   26 1   
@<TRIPOS>SUBSTRUCTURE
     1 R0_         1 TEMP              0 ****  ****    0 ROOT
