@<TRIPOS>MOLECULE
24_dimethylpentan_3_one
   22    21     1     0     0
SMALL
No Charge or Current Charge


@<TRIPOS>ATOM
      1 C1         -2.7030   -1.9950    0.8730 c         1 MOL      0.564600
      2 C2         -0.5400   -0.7410    0.5950 c3        1 MOL     -0.083900
      3 C3         -2.7430    0.3840    0.1370 c3        1 MOL     -0.083900
      4 C4         -4.8870   -3.2320    1.0390 c3        1 MOL     -0.083900
      5 C5         -3.0700   -4.0410   -0.4990 c3        1 MOL     -0.083900
      6 C6         -1.9630   -0.9240    0.0740 c3        1 MOL     -0.161500
      7 C7         -3.7420   -2.8210    0.1180 c3        1 MOL     -0.161500
      8 O1         -2.4730   -2.1840    2.0690 o         1 MOL     -0.524700
      9 H1         -0.5340   -0.3720    1.6270 hc        1 MOL      0.041700
     10 H2          0.0100   -0.0240   -0.0230 hc        1 MOL      0.041700
     11 H3          0.0040   -1.6910    0.5800 hc        1 MOL      0.041700
     12 H4         -3.7550    0.2590   -0.2620 hc        1 MOL      0.041700
     13 H5         -2.8400    0.7380    1.1690 hc        1 MOL      0.041700
     14 H6         -2.2440    1.1640   -0.4470 hc        1 MOL      0.041700
     15 H7         -5.3440   -2.3520    1.5060 hc        1 MOL      0.041700
     16 H8         -5.6650   -3.7610    0.4800 hc        1 MOL      0.041700
     17 H9         -4.5400   -3.8900    1.8430 hc        1 MOL      0.041700
     18 H10        -2.6250   -4.6810    0.2720 hc        1 MOL      0.041700
     19 H11        -3.7900   -4.6400   -1.0650 hc        1 MOL      0.041700
     20 H12        -2.2660   -3.7460   -1.1820 hc        1 MOL      0.041700
     21 H13        -1.8980   -1.2600   -0.9670 hc        1 MOL      0.059300
     22 H14        -4.1610   -2.1950   -0.6790 hc        1 MOL      0.059300
@<TRIPOS>BOND
     1    1    6 1   
     2    1    7 1   
     3    1    8 2   
     4    2    6 1   
     5    3    6 1   
     6    4    7 1   
     7    5    7 1   
     8    2    9 1   
     9    2   10 1   
    10    2   11 1   
    11    3   12 1   
    12    3   13 1   
    13    3   14 1   
    14    4   15 1   
    15    4   16 1   
    16    4   17 1   
    17    5   18 1   
    18    5   19 1   
    19    5   20 1   
    20    6   21 1   
    21    7   22 1   
@<TRIPOS>SUBSTRUCTURE
     1 R0_         1 TEMP              0 ****  ****    0 ROOT
