@<TRIPOS>MOLECULE
methyl_benzoate
   18    18     1     0     0
SMALL
No Charge or Current Charge


@<TRIPOS>ATOM
      1 C1          1.8850   -1.0380   -0.1090 ca        1 MOL     -0.096300
      2 C2          0.8180   -0.4410    0.5630 ca        1 MOL     -0.147800
      3 C3          2.9350   -1.6040    0.6140 ca        1 MOL     -0.147800
      4 C4          0.8010   -0.4100    1.9570 ca        1 MOL     -0.071100
      5 C5          2.9180   -1.5730    2.0080 ca        1 MOL     -0.071100
      6 C6          1.8510   -0.9770    2.6800 ca        1 MOL     -0.134700
      7 C7          1.8330   -0.9450    4.1340 c         1 MOL      0.644800
      8 C8          3.0390   -1.5800    6.0920 c3        1 MOL      0.131700
      9 O1          0.9300   -0.4370    4.8120 o         1 MOL     -0.543800
     10 O2          2.9410   -1.5470    4.6640 os        1 MOL     -0.441000
     11 H1          1.8970   -1.0610   -1.1950 ha        1 MOL      0.136000
     12 H2          0.0000    0.0000   -0.0000 ha        1 MOL      0.139200
     13 H3          3.7650   -2.0690    0.0910 ha        1 MOL      0.139200
     14 H4         -0.0360    0.0570    2.4700 ha        1 MOL      0.155900
     15 H5          3.7420   -2.0180    2.5610 ha        1 MOL      0.155900
     16 H6          2.0560   -1.7890    6.5200 h1        1 MOL      0.050400
     17 H7          3.4100   -0.6190    6.4550 h1        1 MOL      0.050400
     18 H8          3.7360   -2.3700    6.3820 h1        1 MOL      0.050400
@<TRIPOS>BOND
     1    1    2 ar  
     2    1    3 ar  
     3    2    4 ar  
     4    3    5 ar  
     5    4    6 ar  
     6    5    6 ar  
     7    6    7 1   
     8    7    9 2   
     9    7   10 1   
    10    8   10 1   
    11    1   11 1   
    12    2   12 1   
    13    3   13 1   
    14    4   14 1   
    15    5   15 1   
    16    8   16 1   
    17    8   17 1   
    18    8   18 1   
@<TRIPOS>SUBSTRUCTURE
     1 R0_         1 TEMP              0 ****  ****    0 ROOT
