@<TRIPOS>MOLECULE
12_dibromoethane
    8     7     1     0     0
SMALL
No Charge or Current Charge


@<TRIPOS>ATOM
      1 C1          0.6190   -0.7310    0.5280 c3        1 MOL     -0.014700
      2 C2          1.1140   -1.8290   -0.3810 c3        1 MOL     -0.014700
      3 Br1        -0.4980   -1.5000    1.9240 br        1 MOL     -0.157000
      4 Br2         2.1860   -1.0540   -1.8090 br        1 MOL     -0.157000
      5 H1          1.4360   -0.2090    1.0340 h1        1 MOL      0.085800
      6 H2          0.0000   -0.0000    0.0000 h1        1 MOL      0.085800
      7 H3          0.2960   -2.3710   -0.8630 h1        1 MOL      0.085800
      8 H4          1.7580   -2.5430    0.1400 h1        1 MOL      0.085800
@<TRIPOS>BOND
     1    1    2 1   
     2    1    3 1   
     3    2    4 1   
     4    1    5 1   
     5    1    6 1   
     6    2    7 1   
     7    2    8 1   
@<TRIPOS>SUBSTRUCTURE
     1 R0_         1 TEMP              0 ****  ****    0 ROOT
