@<TRIPOS>MOLECULE
2_methylthiophene
   12    12     1     0     0
SMALL
No Charge or Current Charge


@<TRIPOS>ATOM
      1 C1         -0.0620    0.6740   -2.1200 cc        1 MOL     -0.154000
      2 C2         -0.3790   -0.1510   -1.0020 cc        1 MOL     -0.160200
      3 C3         -0.6860    0.2470   -3.2720 cd        1 MOL     -0.166500
      4 C4         -1.2340   -1.1770   -1.3420 cd        1 MOL     -0.092100
      5 C5         -1.7910   -2.2370   -0.4740 c3        1 MOL     -0.030100
      6 S1         -1.6500   -1.1430   -3.0030 ss        1 MOL     -0.005100
      7 H1          0.5910    1.5360   -2.0820 ha        1 MOL      0.151600
      8 H2          0.0020    0.0040   -0.0010 ha        1 MOL      0.151700
      9 H3         -0.6220    0.6850   -4.2580 h4        1 MOL      0.169100
     10 H4         -1.1750   -2.3710    0.4290 hc        1 MOL      0.045200
     11 H5         -2.8170   -2.0100   -0.1400 hc        1 MOL      0.045200
     12 H6         -1.8390   -3.2100   -0.9880 hc        1 MOL      0.045200
@<TRIPOS>BOND
     1    1    2 ar  
     2    1    3 ar  
     3    2    4 ar  
     4    3    6 ar  
     5    4    5 1   
     6    4    6 ar  
     7    1    7 1   
     8    2    8 1   
     9    3    9 1   
    10    5   10 1   
    11    5   11 1   
    12    5   12 1   
@<TRIPOS>SUBSTRUCTURE
     1 R0_         1 TEMP              0 ****  ****    0 ROOT
