@<TRIPOS>MOLECULE
methyl_cyanoacetate
   12    11     1     0     0
SMALL
No Charge or Current Charge


@<TRIPOS>ATOM
      1 C1         -1.9980   -1.0690    4.5020 c1        1 MOL      0.214600
      2 C2         -1.4580   -0.3260    2.2100 c         1 MOL      0.630300
      3 C3         -0.9280    0.5690    0.0840 c3        1 MOL      0.129100
      4 C4         -1.7830    0.0870    3.6250 c3        1 MOL     -0.070900
      5 N1         -2.1700   -1.9810    5.1980 n1        1 MOL     -0.333100
      6 O1         -1.3920   -1.4790    1.8050 o         1 MOL     -0.512400
      7 O2         -1.2500    0.7970    1.4600 os        1 MOL     -0.440800
      8 H1         -0.0490    1.1580   -0.1880 h1        1 MOL      0.054700
      9 H2         -1.7780    0.8540   -0.5420 h1        1 MOL      0.054700
     10 H3         -0.7120   -0.4920   -0.0590 h1        1 MOL      0.054700
     11 H4         -2.6880    0.7040    3.6050 hc        1 MOL      0.109600
     12 H5         -0.9520    0.6880    4.0080 hc        1 MOL      0.109600
@<TRIPOS>BOND
     1    1    4 1   
     2    1    5 3   
     3    2    4 1   
     4    2    6 2   
     5    2    7 1   
     6    3    7 1   
     7    3    8 1   
     8    3    9 1   
     9    3   10 1   
    10    4   11 1   
    11    4   12 1   
@<TRIPOS>SUBSTRUCTURE
     1 R0_         1 TEMP              0 ****  ****    0 ROOT
