@<TRIPOS>MOLECULE
diethyl_malonate
   23    22     1     0     0
SMALL
No Charge or Current Charge


@<TRIPOS>ATOM
      1 C1         -1.7480   -1.9700   -0.4570 c         1 MOL      0.636600
      2 C2         -3.8570   -3.1510   -1.3110 c         1 MOL      0.636600
      3 C3          0.5830   -0.4810    1.9450 c3        1 MOL     -0.113000
      4 C4         -7.1210   -4.8100   -1.1780 c3        1 MOL     -0.113000
      5 C5         -3.0690   -2.6260   -0.1360 c3        1 MOL     -0.180900
      6 C6          0.0900   -0.8910    0.5740 c3        1 MOL      0.142400
      7 C7         -5.8860   -4.2470   -1.8480 c3        1 MOL      0.142400
      8 O1         -1.2690   -1.8410   -1.5740 o         1 MOL     -0.500700
      9 O2         -3.5110   -3.0970   -2.4830 o         1 MOL     -0.500700
     10 O3         -1.1770   -1.5420    0.7100 os        1 MOL     -0.453400
     11 O4         -5.0210   -3.6990   -0.8480 os        1 MOL     -0.453400
     12 H1          1.5530    0.0200    1.8770 hc        1 MOL      0.048500
     13 H2         -0.1310    0.1950    2.4270 hc        1 MOL      0.048500
     14 H3          0.6830   -1.3560    2.5970 hc        1 MOL      0.048500
     15 H4         -7.8050   -5.2380   -1.9160 hc        1 MOL      0.048500
     16 H5         -6.8480   -5.5870   -0.4560 hc        1 MOL      0.048500
     17 H6         -7.6470   -4.0280   -0.6200 hc        1 MOL      0.048500
     18 H7         -2.8660   -3.4730    0.5290 hc        1 MOL      0.114800
     19 H8         -3.6910   -1.8820    0.3750 hc        1 MOL      0.114800
     20 H9          0.7940   -1.5850    0.1040 h1        1 MOL      0.059200
     21 H10        -0.0320   -0.0140   -0.0680 h1        1 MOL      0.059200
     22 H11        -6.1580   -3.4550   -2.5520 h1        1 MOL      0.059200
     23 H12        -5.3480   -5.0350   -2.3850 h1        1 MOL      0.059200
@<TRIPOS>BOND
     1    1    5 1   
     2    1    8 2   
     3    1   10 1   
     4    2    5 1   
     5    2    9 2   
     6    2   11 1   
     7    3    6 1   
     8    4    7 1   
     9    6   10 1   
    10    7   11 1   
    11    3   12 1   
    12    3   13 1   
    13    3   14 1   
    14    4   15 1   
    15    4   16 1   
    16    4   17 1   
    17    5   18 1   
    18    5   19 1   
    19    6   20 1   
    20    6   21 1   
    21    7   22 1   
    22    7   23 1   
@<TRIPOS>SUBSTRUCTURE
     1 R0_         1 TEMP              0 ****  ****    0 ROOT
