@<TRIPOS>MOLECULE
1_methyl_imidazole
   12    12     1     0     0
SMALL
No Charge or Current Charge


@<TRIPOS>ATOM
      1 C1          2.0280   -0.7310   -0.6600 cc        1 MOL      0.290200
      2 C2          0.6790   -0.7430   -0.3930 cd        1 MOL     -0.258300
      3 C3          1.3580   -2.6790   -1.1960 cd        1 MOL      0.384500
      4 C4         -1.0810   -2.5090   -0.6450 c3        1 MOL      0.028500
      5 N1          2.4440   -1.9400   -1.1610 nc        1 MOL     -0.667200
      6 N2          0.2640   -1.9970   -0.7410 na        1 MOL     -0.208700
      7 H1          2.7200    0.0860   -0.5190 h4        1 MOL      0.041700
      8 H2          0.0050    0.0050    0.0010 h4        1 MOL      0.175300
      9 H3          1.3020   -3.7040   -1.5380 h5        1 MOL      0.059100
     10 H4         -1.1160   -3.2120    0.1910 h1        1 MOL      0.051700
     11 H5         -1.7750   -1.6800   -0.4770 h1        1 MOL      0.051700
     12 H6         -1.3440   -3.0120   -1.5800 h1        1 MOL      0.051700
@<TRIPOS>BOND
     1    1    2 ar  
     2    1    5 ar  
     3    2    6 ar  
     4    3    5 ar  
     5    3    6 ar  
     6    4    6 1   
     7    1    7 1   
     8    2    8 1   
     9    3    9 1   
    10    4   10 1   
    11    4   11 1   
    12    4   12 1   
@<TRIPOS>SUBSTRUCTURE
     1 R0_         1 TEMP              0 ****  ****    0 ROOT
