@<TRIPOS>MOLECULE
CUP08029_AM1BCC_v1_0
   25    27     1     0     0
SMALL
No Charge or Current Charge


@<TRIPOS>ATOM
      1 C1         -0.2910   -0.4740   -2.7050 c2        1 MOL     -0.043500
      2 C2         -1.4890   -1.0680   -2.7390 c2        1 MOL     -0.043500
      3 C3         -0.2210    1.0650   -0.1010 c3        1 MOL      0.164100
      4 C4         -2.8770   -0.2510   -0.1770 c3        1 MOL      0.164100
      5 C5         -1.1210    1.3950   -1.2950 c3        1 MOL     -0.096600
      6 C6         -2.5390    0.6920   -1.3360 c3        1 MOL     -0.096600
      7 C7         -0.5290    1.0240   -2.6990 c3        1 MOL      0.078600
      8 C8         -2.5370    0.0280   -2.7560 c3        1 MOL      0.078600
      9 C9         -1.7850    1.0860   -3.6270 c3        1 MOL      0.136500
     10 O1         -2.0440    1.2130    3.2250 o         1 MOL     -0.438200
     11 O2         -0.8090    1.5760    1.0880 os        1 MOL     -0.401800
     12 O3         -2.9820    0.5000    1.0260 os        1 MOL     -0.401800
     13 S1         -1.6660    0.5230    1.9530 s4        1 MOL      0.794700
     14 Cl1         1.2310   -1.2070   -2.5890 cl        1 MOL     -0.006600
     15 Cl2        -1.8310   -2.7250   -2.6750 cl        1 MOL     -0.006600
     16 Cl3         0.8250    2.0260   -3.1870 cl        1 MOL     -0.070900
     17 Cl4        -4.1310   -0.4310   -3.3290 cl        1 MOL     -0.070900
     18 Cl5        -1.4850    0.5780   -5.3340 cl        1 MOL     -0.086100
     19 Cl6        -2.5800    2.6950   -3.7140 cl        1 MOL     -0.086100
     20 H1          0.0050   -0.0040   -0.0120 h1        1 MOL      0.052200
     21 H2          0.7410    1.5760   -0.2160 h1        1 MOL      0.052200
     22 H3         -3.8600   -0.7030   -0.3480 h1        1 MOL      0.052200
     23 H4         -2.1680   -1.0810   -0.0740 h1        1 MOL      0.052200
     24 H5         -1.3090    2.4770   -1.2510 hc        1 MOL      0.112000
     25 H6         -3.2890    1.4960   -1.3070 hc        1 MOL      0.112000
@<TRIPOS>BOND
     1    1    2 2   
     2    1    7 1   
     3    1   14 1   
     4    2    8 1   
     5    2   15 1   
     6    3    5 1   
     7    3   11 1   
     8    4    6 1   
     9    4   12 1   
    10    5    6 1   
    11    5    7 1   
    12    6    8 1   
    13    7    9 1   
    14    7   16 1   
    15    8    9 1   
    16    8   17 1   
    17    9   18 1   
    18    9   19 1   
    19   10   13 2   
    20   11   13 1   
    21   12   13 1   
    22    3   20 1   
    23    3   21 1   
    24    4   22 1   
    25    4   23 1   
    26    5   24 1   
    27    6   25 1   
@<TRIPOS>SUBSTRUCTURE
     1 R0_         1 TEMP              0 ****  ****    0 ROOT
