@<TRIPOS>MOLECULE
n_butylamine
   16    15     1     0     0
SMALL
No Charge or Current Charge


@<TRIPOS>ATOM
      1 C1          1.0010   -0.0190   -0.3650 c3        1 MOL     -0.089900
      2 C2          1.4150    1.2880   -1.0210 c3        1 MOL     -0.076500
      3 C3          0.4960    1.6440   -2.1900 c3        1 MOL     -0.078600
      4 C4          0.8960    2.9760   -2.8210 c3        1 MOL      0.161600
      5 N1          0.0210    3.2870   -3.9460 n3        1 MOL     -0.916600
      6 H1          1.6720   -0.2550    0.4680 hc        1 MOL      0.032300
      7 H2         -0.0190    0.0440    0.0280 hc        1 MOL      0.032300
      8 H3          1.0430   -0.8480   -1.0790 hc        1 MOL      0.032300
      9 H4          1.3930    2.0890   -0.2730 hc        1 MOL      0.038600
     10 H5          2.4490    1.2010   -1.3740 hc        1 MOL      0.038600
     11 H6          0.5380    0.8480   -2.9440 hc        1 MOL      0.042900
     12 H7         -0.5420    1.6970   -1.8350 hc        1 MOL      0.042900
     13 H8          0.8350    3.7810   -2.0800 h1        1 MOL      0.022500
     14 H9          1.9310    2.9290   -3.1770 h1        1 MOL      0.022500
     15 H10        -0.2060    4.2780   -3.9260 hn        1 MOL      0.347600
     16 H11        -0.8570    2.7880   -3.8320 hn        1 MOL      0.347600
@<TRIPOS>BOND
     1    1    2 1   
     2    2    3 1   
     3    3    4 1   
     4    4    5 1   
     5    1    6 1   
     6    1    7 1   
     7    1    8 1   
     8    2    9 1   
     9    2   10 1   
    10    3   11 1   
    11    3   12 1   
    12    4   13 1   
    13    4   14 1   
    14    5   15 1   
    15    5   16 1   
@<TRIPOS>SUBSTRUCTURE
     1 R0_         1 TEMP              0 ****  ****    0 ROOT
