@<TRIPOS>MOLECULE
pyrene
   26    29     1     0     0
SMALL
No Charge or Current Charge


@<TRIPOS>ATOM
      1 C1          5.0320    4.9310    4.0190 ca        1 MOL     -0.127300
      2 C2          0.6740    0.6600    0.5380 ca        1 MOL     -0.127300
      3 C3          3.8660    4.4770    4.6340 ca        1 MOL     -0.113900
      4 C4          5.3360    4.5410    2.7160 ca        1 MOL     -0.113900
      5 C5          0.3700    1.0510    1.8410 ca        1 MOL     -0.113900
      6 C6          1.8390    1.1150   -0.0760 ca        1 MOL     -0.113900
      7 C7          1.8100    3.1560    4.5520 ca        1 MOL     -0.108900
      8 C8          4.7630    3.2840    0.6970 ca        1 MOL     -0.108900
      9 C9          0.9430    2.3070    3.8600 ca        1 MOL     -0.108900
     10 C10         3.8970    2.4360    0.0050 ca        1 MOL     -0.108900
     11 C11         2.9860    3.6240    3.9520 ca        1 MOL     -0.039000
     12 C12         4.4760    3.6890    2.0080 ca        1 MOL     -0.039000
     13 C13         1.2300    1.9030    2.5500 ca        1 MOL     -0.039000
     14 C14         2.7200    1.9680    0.6050 ca        1 MOL     -0.039000
     15 C15         3.2930    3.2260    2.6300 ca        1 MOL     -0.015400
     16 C16         2.4140    2.3650    1.9280 ca        1 MOL     -0.015400
     17 H1          5.7050    5.5920    4.5580 ha        1 MOL      0.133000
     18 H2          0.0010    0.0000   -0.0010 ha        1 MOL      0.133000
     19 H3          3.6510    4.7960    5.6520 ha        1 MOL      0.133600
     20 H4          6.2520    4.9090    2.2590 ha        1 MOL      0.133600
     21 H5         -0.5450    0.6830    2.2990 ha        1 MOL      0.133600
     22 H6          2.0540    0.7960   -1.0940 ha        1 MOL      0.133600
     23 H7          1.5530    3.4480    5.5690 ha        1 MOL      0.133000
     24 H8          5.6670    3.6270    0.1980 ha        1 MOL      0.133000
     25 H9          0.0390    1.9640    4.3590 ha        1 MOL      0.133000
     26 H10         4.1520    2.1430   -1.0110 ha        1 MOL      0.133000
@<TRIPOS>BOND
     1    1    3 ar  
     2    1    4 ar  
     3    2    5 ar  
     4    2    6 ar  
     5    3   11 ar  
     6    4   12 ar  
     7    5   13 ar  
     8    6   14 ar  
     9    7    9 ar  
    10    7   11 ar  
    11    8   10 ar  
    12    8   12 ar  
    13    9   13 ar  
    14   10   14 ar  
    15   11   15 ar  
    16   12   15 ar  
    17   13   16 ar  
    18   14   16 ar  
    19   15   16 ar  
    20    1   17 1   
    21    2   18 1   
    22    3   19 1   
    23    4   20 1   
    24    5   21 1   
    25    6   22 1   
    26    7   23 1   
    27    8   24 1   
    28    9   25 1   
    29   10   26 1   
@<TRIPOS>SUBSTRUCTURE
     1 R0_         1 TEMP              0 ****  ****    0 ROOT
