@<TRIPOS>MOLECULE
detet.xyz
   22    21     1     0     0
SMALL
No Charge or Current Charge


@<TRIPOS>ATOM
      1 C1          0.0000    0.0000    0.0000 c3        1 MOL     -0.092100
      2 C2          4.2930    0.8370    3.4120 c3        1 MOL     -0.092800
      3 C3          3.5800    2.9880   -0.3630 c3        1 MOL     -0.115000
      4 C4          1.5150    0.0000    0.0000 c3        1 MOL      0.145600
      5 C5          3.6960    1.6850    2.3070 c3        1 MOL      0.142400
      6 C6          3.3320    1.5210   -0.0660 c3        1 MOL      0.349900
      7 O1          1.9580    1.3350    0.0000 os        1 MOL     -0.448200
      8 O2          3.9790    1.0580    1.0780 os        1 MOL     -0.450300
      9 H1         -0.3760   -1.0190   -0.0040 hc        1 MOL      0.039600
     10 H2         -0.3820    0.5030    0.8820 hc        1 MOL      0.043500
     11 H3         -0.3830    0.5120   -0.8760 hc        1 MOL      0.043200
     12 H4          3.8540   -0.1540    3.4150 hc        1 MOL      0.041200
     13 H5          4.1110    1.2980    4.3790 hc        1 MOL      0.038400
     14 H6          5.3640    0.7330    3.2760 hc        1 MOL      0.043300
     15 H7          3.0850    3.6250    0.3600 hc        1 MOL      0.049300
     16 H8          3.1850    3.2270   -1.3440 hc        1 MOL      0.049900
     17 H9          4.6450    3.1960   -0.3530 hc        1 MOL      0.051900
     18 H10         1.8970   -0.5090   -0.8850 h1        1 MOL      0.018200
     19 H11         1.9000   -0.5210    0.8710 h1        1 MOL      0.031700
     20 H12         2.6230    1.7840    2.4370 h1        1 MOL      0.033000
     21 H13         4.1300    2.6810    2.3260 h1        1 MOL      0.020000
     22 H14         3.7450    0.9070   -0.8610 h2        1 MOL      0.057300
@<TRIPOS>BOND
     1    1    4 1   
     2    2    5 1   
     3    3    6 1   
     4    4    7 1   
     5    5    8 1   
     6    6    7 1   
     7    6    8 1   
     8    1    9 1   
     9    1   10 1   
    10    1   11 1   
    11    2   12 1   
    12    2   13 1   
    13    2   14 1   
    14    3   15 1   
    15    3   16 1   
    16    3   17 1   
    17    4   18 1   
    18    4   19 1   
    19    5   20 1   
    20    5   21 1   
    21    6   22 1   
@<TRIPOS>SUBSTRUCTURE
     1 MOL         1 TEMP              0 ****  ****    0 ROOT
