@<TRIPOS>MOLECULE
n_propylbenzene
   21    21     1     0     0
SMALL
No Charge or Current Charge


@<TRIPOS>ATOM
      1 C1          1.8850   -1.0380   -0.1090 ca        1 MOL     -0.133600
      2 C2          0.8180   -0.4410    0.5630 ca        1 MOL     -0.128300
      3 C3          2.9350   -1.6040    0.6140 ca        1 MOL     -0.128300
      4 C4          0.8010   -0.4100    1.9570 ca        1 MOL     -0.128000
      5 C5          2.9180   -1.5730    2.0080 ca        1 MOL     -0.128000
      6 C6          1.8510   -0.9770    2.6800 ca        1 MOL     -0.066500
      7 C7          2.4570    0.3580    6.2520 c3        1 MOL     -0.090900
      8 C8          1.8330   -0.9440    4.1710 c3        1 MOL     -0.045700
      9 C9          2.5100    0.3140    4.7330 c3        1 MOL     -0.073900
     10 H1          1.8980   -1.0610   -1.1950 ha        1 MOL      0.129900
     11 H2          0.0000    0.0000   -0.0000 ha        1 MOL      0.129700
     12 H3          3.7650   -2.0680    0.0910 ha        1 MOL      0.129700
     13 H4         -0.0350    0.0570    2.4720 ha        1 MOL      0.130600
     14 H5          3.7400   -2.0170    2.5630 ha        1 MOL      0.130600
     15 H6          1.4220    0.3580    6.6090 hc        1 MOL      0.032900
     16 H7          2.9710   -0.5050    6.6870 hc        1 MOL      0.032900
     17 H8          2.9440    1.2660    6.6220 hc        1 MOL      0.032900
     18 H9          0.7950   -0.9980    4.5390 hc        1 MOL      0.045900
     19 H10         2.3300   -1.8410    4.5770 hc        1 MOL      0.045900
     20 H11         3.5570    0.3510    4.4090 hc        1 MOL      0.041100
     21 H12         2.0220    1.2110    4.3310 hc        1 MOL      0.041100
@<TRIPOS>BOND
     1    1    2 ar  
     2    1    3 ar  
     3    2    4 ar  
     4    3    5 ar  
     5    4    6 ar  
     6    5    6 ar  
     7    6    8 1   
     8    7    9 1   
     9    8    9 1   
    10    1   10 1   
    11    2   11 1   
    12    3   12 1   
    13    4   13 1   
    14    5   14 1   
    15    7   15 1   
    16    7   16 1   
    17    7   17 1   
    18    8   18 1   
    19    8   19 1   
    20    9   20 1   
    21    9   21 1   
@<TRIPOS>SUBSTRUCTURE
     1 R0_         1 TEMP              0 ****  ****    0 ROOT
