@<TRIPOS>MOLECULE
2_methylbuta_13_diene
   13    12     1     0     0
SMALL
No Charge or Current Charge


@<TRIPOS>ATOM
      1 C1         -0.1320   -0.3170    1.0280 c2        1 MOL     -0.211100
      2 C2         -0.9690   -3.9040    0.9360 c2        1 MOL     -0.213700
      3 C3         -0.4460   -1.5740    1.3660 ce        1 MOL     -0.132400
      4 C4         -0.6570   -2.6890    0.4540 ce        1 MOL     -0.086600
      5 C5         -0.5220   -2.4670   -1.0270 c3        1 MOL     -0.056000
      6 H1          0.0010    0.4340    1.8000 ha        1 MOL      0.112900
      7 H2         -0.0000    0.0000   -0.0000 ha        1 MOL      0.112900
      8 H3         -1.1300   -4.7490    0.2730 ha        1 MOL      0.113500
      9 H4         -1.0720   -4.0910    2.0000 ha        1 MOL      0.113500
     10 H5         -0.5550   -1.7880    2.4280 ha        1 MOL      0.122500
     11 H6         -1.2430   -1.7200   -1.3750 hc        1 MOL      0.041400
     12 H7         -0.7050   -3.3840   -1.5980 hc        1 MOL      0.041400
     13 H8          0.4890   -2.1270   -1.2780 hc        1 MOL      0.041400
@<TRIPOS>BOND
     1    1    3 2   
     2    2    4 2   
     3    3    4 1   
     4    4    5 1   
     5    1    6 1   
     6    1    7 1   
     7    2    8 1   
     8    2    9 1   
     9    3   10 1   
    10    5   11 1   
    11    5   12 1   
    12    5   13 1   
@<TRIPOS>SUBSTRUCTURE
     1 R0_         1 TEMP              0 ****  ****    0 ROOT
