@<TRIPOS>MOLECULE
SAMPL4_014
   25    25     1     0     0
SMALL
bcc


@<TRIPOS>ATOM
      1 C1         -0.6480   -0.7410   -1.1460 c2        1 MOL     -0.100200
      2 C2          0.3450    0.1580   -1.1480 ce        1 MOL     -0.219400
      3 C3         -2.3770   -0.4370    3.4030 c2        1 MOL     -0.222000
      4 C4          0.9300    0.5240   -2.4400 c         1 MOL      0.566100
      5 C5         -1.4460   -0.9720    2.5990 c2        1 MOL     -0.112400
      6 C6         -1.3330   -1.1890    0.1150 c3        1 MOL     -0.053200
      7 C7          0.9030    0.7890    0.0920 c3        1 MOL     -0.037200
      8 C8          0.4770    0.0560    1.3690 c3        1 MOL     -0.071400
      9 C9         -1.0150   -0.3010    1.3310 c3        1 MOL     -0.028500
     10 C10        -0.7770   -2.2760    2.9170 c3        1 MOL     -0.061900
     11 O1          1.8410    1.3370   -2.5450 o         1 MOL     -0.527100
     12 H1         -0.9990   -1.1870   -2.0730 ha        1 MOL      0.124000
     13 H2         -2.6820   -0.9310    4.3190 ha        1 MOL      0.113500
     14 H3         -2.8550    0.5070    3.1630 ha        1 MOL      0.113500
     15 H4          0.4900    0.0160   -3.3140 h4        1 MOL     -0.008800
     16 H5         -2.4170   -1.1930   -0.0540 hc        1 MOL      0.060700
     17 H6         -1.0400   -2.2300    0.3070 hc        1 MOL      0.060700
     18 H7          1.9980    0.8100    0.0480 hc        1 MOL      0.062700
     19 H8          0.5620    1.8300    0.1390 hc        1 MOL      0.062700
     20 H9          1.0760   -0.8580    1.4800 hc        1 MOL      0.047700
     21 H10         0.7040    0.6880    2.2370 hc        1 MOL      0.047700
     22 H11        -1.5910    0.6290    1.2420 hc        1 MOL      0.055700
     23 H12        -1.3410   -3.1080    2.4830 hc        1 MOL      0.042367
     24 H13         0.2380   -2.2920    2.5070 hc        1 MOL      0.042367
     25 H14        -0.7040   -2.4490    3.9960 hc        1 MOL      0.042367
@<TRIPOS>BOND
     1    1    2 2   
     2    1    6 1   
     3    2    4 1   
     4    2    7 1   
     5    3    5 2   
     6    4   11 2   
     7    5    9 1   
     8    5   10 1   
     9    6    9 1   
    10    7    8 1   
    11    8    9 1   
    12    1   12 1   
    13    3   13 1   
    14    3   14 1   
    15    4   15 1   
    16    6   16 1   
    17    6   17 1   
    18    7   18 1   
    19    7   19 1   
    20    8   20 1   
    21    8   21 1   
    22    9   22 1   
    23   10   23 1   
    24   10   24 1   
    25   10   25 1   
@<TRIPOS>SUBSTRUCTURE
     1 TMP         1 TEMP              0 ****  ****    0 ROOT
