@<TRIPOS>MOLECULE
pentan_2_ol
   18    17     1     0     0
SMALL
No Charge or Current Charge


@<TRIPOS>ATOM
      1 C1         -0.3630    0.7820   -0.7780 c3        1 MOL     -0.090400
      2 C2         -0.7530   -2.7860   -4.3250 c3        1 MOL     -0.124500
      3 C3          0.1200    0.3160   -2.1430 c3        1 MOL     -0.074500
      4 C4         -0.5210   -1.0170   -2.5370 c3        1 MOL     -0.076900
      5 C5         -0.0770   -1.4810   -3.9280 c3        1 MOL      0.143300
      6 O1         -0.3950   -0.4880   -4.9000 oh        1 MOL     -0.603400
      7 H1          0.1060    1.7350   -0.5150 hc        1 MOL      0.032500
      8 H2         -0.1100    0.0530   -0.0020 hc        1 MOL      0.032500
      9 H3         -1.4480    0.9260   -0.7740 hc        1 MOL      0.032500
     10 H4         -1.8420   -2.6710   -4.3580 hc        1 MOL      0.041900
     11 H5         -0.4380   -3.0890   -5.3290 hc        1 MOL      0.041900
     12 H6         -0.5060   -3.5900   -3.6240 hc        1 MOL      0.041900
     13 H7         -0.1180    1.0850   -2.8860 hc        1 MOL      0.040800
     14 H8          1.2110    0.2120   -2.1200 hc        1 MOL      0.040800
     15 H9         -0.2590   -1.7820   -1.7950 hc        1 MOL      0.048000
     16 H10        -1.6120   -0.9000   -2.5180 hc        1 MOL      0.048000
     17 H11         1.0100   -1.6200   -3.9460 h1        1 MOL      0.027700
     18 H12         0.1420   -0.6860   -5.6830 ho        1 MOL      0.398000
@<TRIPOS>BOND
     1    1    3 1   
     2    2    5 1   
     3    3    4 1   
     4    4    5 1   
     5    5    6 1   
     6    1    7 1   
     7    1    8 1   
     8    1    9 1   
     9    2   10 1   
    10    2   11 1   
    11    2   12 1   
    12    3   13 1   
    13    3   14 1   
    14    4   15 1   
    15    4   16 1   
    16    5   17 1   
    17    6   18 1   
@<TRIPOS>SUBSTRUCTURE
     1 R0_         1 TEMP              0 ****  ****    0 ROOT
