@<TRIPOS>MOLECULE
CUP08026_AM1BCC_v1_0
   13    13     1     0     0
SMALL
No Charge or Current Charge


@<TRIPOS>ATOM
      1 C1          1.7550   -1.1000    4.1260 cg        1 MOL      0.229600
      2 C2          1.8860   -1.0360   -0.1190 ca        1 MOL     -0.092100
      3 C3          0.8100   -0.4640    0.5560 ca        1 MOL     -0.131600
      4 C4          2.9180   -1.6290    0.6030 ca        1 MOL     -0.131600
      5 C5          1.7990   -1.0790    2.6940 ca        1 MOL     -0.004000
      6 C6          0.7660   -0.4840    1.9550 ca        1 MOL      0.054900
      7 C7          2.8770   -1.6510    2.0020 ca        1 MOL      0.054900
      8 N1          1.7190   -1.1170    5.2860 n1        1 MOL     -0.330800
      9 Cl1        -0.6050    0.2470    2.7150 cl        1 MOL     -0.057000
     10 Cl2         4.1990   -2.4080    2.8220 cl        1 MOL     -0.057000
     11 H1          1.9190   -1.0200   -1.2070 ha        1 MOL      0.148900
     12 H2          0.0050   -0.0030   -0.0130 ha        1 MOL      0.157900
     13 H3          3.7570   -2.0740    0.0700 ha        1 MOL      0.157900
@<TRIPOS>BOND
     1    1    5 1   
     2    1    8 3   
     3    2    3 ar  
     4    2    4 ar  
     5    3    6 ar  
     6    4    7 ar  
     7    5    6 ar  
     8    5    7 ar  
     9    6    9 1   
    10    7   10 1   
    11    2   11 1   
    12    3   12 1   
    13    4   13 1   
@<TRIPOS>SUBSTRUCTURE
     1 R0_         1 TEMP              0 ****  ****    0 ROOT
