@<TRIPOS>MOLECULE
diisopropyl_ether
   21    20     1     0     0
SMALL
No Charge or Current Charge


@<TRIPOS>ATOM
      1 C1          0.2250   -0.0420    1.7540 c3        1 MOL     -0.104200
      2 C2          2.1170    0.4790    0.1730 c3        1 MOL     -0.104200
      3 C3          1.5260    4.4510    0.6850 c3        1 MOL     -0.104200
      4 C4          1.5300    3.5650    3.0450 c3        1 MOL     -0.104200
      5 C5          1.3530    0.9190    1.4130 c3        1 MOL      0.141000
      6 C6          1.7300    3.2330    1.5730 c3        1 MOL      0.141000
      7 O1          0.8120    2.2180    1.1940 os        1 MOL     -0.425400
      8 H1          0.6070   -1.0470    1.9590 hc        1 MOL      0.041100
      9 H2         -0.3220    0.3100    2.6360 hc        1 MOL      0.041100
     10 H3         -0.5020   -0.1030    0.9370 hc        1 MOL      0.041100
     11 H4          2.5710   -0.5060    0.3160 hc        1 MOL      0.041100
     12 H5          2.9080    1.1990   -0.0620 hc        1 MOL      0.041100
     13 H6          1.4580    0.4380   -0.7010 hc        1 MOL      0.041100
     14 H7          2.2380    5.2450    0.9300 hc        1 MOL      0.041100
     15 H8          1.6530    4.1790   -0.3680 hc        1 MOL      0.041100
     16 H9          0.5100    4.8480    0.7870 hc        1 MOL      0.041100
     17 H10         2.2410    4.3260    3.3810 hc        1 MOL      0.041100
     18 H11         1.6620    2.6670    3.6590 hc        1 MOL      0.041100
     19 H12         0.5140    3.9280    3.2320 hc        1 MOL      0.041100
     20 H13         2.0420    0.9900    2.2610 h1        1 MOL      0.033400
     21 H14         2.7390    2.8360    1.4220 h1        1 MOL      0.033400
@<TRIPOS>BOND
     1    1    5 1   
     2    2    5 1   
     3    3    6 1   
     4    4    6 1   
     5    5    7 1   
     6    6    7 1   
     7    1    8 1   
     8    1    9 1   
     9    1   10 1   
    10    2   11 1   
    11    2   12 1   
    12    2   13 1   
    13    3   14 1   
    14    3   15 1   
    15    3   16 1   
    16    4   17 1   
    17    4   18 1   
    18    4   19 1   
    19    5   20 1   
    20    6   21 1   
@<TRIPOS>SUBSTRUCTURE
     1 R0_         1 TEMP              0 ****  ****    0 ROOT
