@<TRIPOS>MOLECULE
diisopropylamine
   22    21     1     0     0
SMALL
No Charge or Current Charge


@<TRIPOS>ATOM
      1 C1          1.5220    0.8130    2.3480 c3        1 MOL     -0.098300
      2 C2          0.2120   -1.1980    3.1010 c3        1 MOL     -0.098300
      3 C3          1.4940   -0.5320   -0.8800 c3        1 MOL     -0.098300
      4 C4          3.6370   -1.7250   -0.3220 c3        1 MOL     -0.098300
      5 C5          0.8960   -0.5120    1.9230 c3        1 MOL      0.179500
      6 C6          2.5400   -0.8010    0.1980 c3        1 MOL      0.179500
      7 N1          1.9160   -1.4010    1.3670 n3        1 MOL     -0.829900
      8 H1          0.7590    1.4900    2.7460 hc        1 MOL      0.036400
      9 H2          2.2830    0.6690    3.1240 hc        1 MOL      0.036400
     10 H3          1.9980    1.3130    1.4970 hc        1 MOL      0.036400
     11 H4         -0.2490   -2.1430    2.7920 hc        1 MOL      0.036400
     12 H5         -0.5790   -0.5620    3.5120 hc        1 MOL      0.036400
     13 H6          0.9210   -1.4160    3.9090 hc        1 MOL      0.036400
     14 H7          1.9540   -0.0620   -1.7560 hc        1 MOL      0.036400
     15 H8          1.0080   -1.4570   -1.2110 hc        1 MOL      0.036400
     16 H9          0.7150    0.1450   -0.5120 hc        1 MOL      0.036400
     17 H10         4.3940   -1.9060    0.4490 hc        1 MOL      0.036400
     18 H11         4.1420   -1.2760   -1.1840 hc        1 MOL      0.036400
     19 H12         3.2340   -2.6940   -0.6350 hc        1 MOL      0.036400
     20 H13         0.1470   -0.3190    1.1460 h1        1 MOL      0.034300
     21 H14         2.9930    0.1500    0.4980 h1        1 MOL      0.034300
     22 H15         2.6240   -1.5750    2.0780 hn        1 MOL      0.358300
@<TRIPOS>BOND
     1    1    5 1   
     2    2    5 1   
     3    3    6 1   
     4    4    6 1   
     5    5    7 1   
     6    6    7 1   
     7    1    8 1   
     8    1    9 1   
     9    1   10 1   
    10    2   11 1   
    11    2   12 1   
    12    2   13 1   
    13    3   14 1   
    14    3   15 1   
    15    3   16 1   
    16    4   17 1   
    17    4   18 1   
    18    4   19 1   
    19    5   20 1   
    20    6   21 1   
    21    7   22 1   
@<TRIPOS>SUBSTRUCTURE
     1 R0_         1 TEMP              0 ****  ****    0 ROOT
