@<TRIPOS>MOLECULE
CUP08053_AM1BCC_v1_0
   35    35     1     0     0
SMALL
No Charge or Current Charge


@<TRIPOS>ATOM
      1 C1          2.7760   -3.6120    4.1800 ca        1 MOL      0.928800
      2 C2          1.4480   -1.7920    4.1040 ca        1 MOL      0.937700
      3 C3          1.1920   -3.3150    5.7210 ca        1 MOL      0.797400
      4 C4          5.0740   -5.3440    1.8490 c3        1 MOL     -0.109400
      5 C5          0.3950    1.0380    1.9010 c3        1 MOL     -0.102900
      6 C6          2.6300   -0.0410    1.7480 c3        1 MOL     -0.102900
      7 C7          0.5280   -1.3650    1.2480 c3        1 MOL     -0.102900
      8 C8         -0.1600   -2.3470    7.9010 c3        1 MOL     -0.063400
      9 C9          3.9700   -4.3790    2.2490 c3        1 MOL      0.215800
     10 C10         1.1620   -0.2810    2.1320 c3        1 MOL      0.244300
     11 N1          2.4430   -2.4820    3.5710 nb        1 MOL     -0.852200
     12 N2          2.1710   -4.0800    5.2560 nb        1 MOL     -0.805400
     13 N3          0.7830   -2.1720    5.1820 nb        1 MOL     -0.837700
     14 N4          3.8150   -4.3960    3.6920 nh        1 MOL     -0.846200
     15 N5          1.0260   -0.5970    3.5560 nh        1 MOL     -0.835500
     16 S1          0.3430   -3.9190    7.1640 ss        1 MOL     -0.196800
     17 H1          6.0250   -5.0690    2.3180 hc        1 MOL      0.044100
     18 H2          4.8330   -6.3670    2.1580 hc        1 MOL      0.044100
     19 H3          5.2120   -5.3380    0.7640 hc        1 MOL      0.044100
     20 H4         -0.6650    0.9310    2.1580 hc        1 MOL      0.044400
     21 H5          0.8000    1.8450    2.5220 hc        1 MOL      0.044400
     22 H6          0.4540    1.3570    0.8540 hc        1 MOL      0.044400
     23 H7          3.2220   -0.9600    1.7630 hc        1 MOL      0.044400
     24 H8          3.1060    0.6700    2.4320 hc        1 MOL      0.044400
     25 H9          2.7080    0.3660    0.7330 hc        1 MOL      0.044400
     26 H10         1.0710   -2.3150    1.3060 hc        1 MOL      0.044400
     27 H11        -0.5090   -1.5620    1.5450 hc        1 MOL      0.044400
     28 H12         0.5240   -1.0610    0.1950 hc        1 MOL      0.044400
     29 H13        -0.6280   -2.5420    8.8700 h1        1 MOL      0.073500
     30 H14        -0.8900   -1.8340    7.2680 h1        1 MOL      0.073500
     31 H15         0.7060   -1.6990    8.0620 h1        1 MOL      0.073500
     32 H16         3.0370   -4.6780    1.7560 h1        1 MOL      0.051400
     33 H17         4.2400   -3.3760    1.8990 h1        1 MOL      0.051400
     34 H18         3.7000   -5.3130    4.1120 hn        1 MOL      0.442000
     35 H19         0.1160   -0.4000    3.9600 hn        1 MOL      0.434100
@<TRIPOS>BOND
     1    1   11 ar  
     2    1   12 ar  
     3    1   14 1   
     4    2   11 ar  
     5    2   13 ar  
     6    2   15 1   
     7    3   12 ar  
     8    3   13 ar  
     9    3   16 1   
    10    4    9 1   
    11    5   10 1   
    12    6   10 1   
    13    7   10 1   
    14    8   16 1   
    15    9   14 1   
    16   10   15 1   
    17    4   17 1   
    18    4   18 1   
    19    4   19 1   
    20    5   20 1   
    21    5   21 1   
    22    5   22 1   
    23    6   23 1   
    24    6   24 1   
    25    6   25 1   
    26    7   26 1   
    27    7   27 1   
    28    7   28 1   
    29    8   29 1   
    30    8   30 1   
    31    8   31 1   
    32    9   32 1   
    33    9   33 1   
    34   14   34 1   
    35   15   35 1   
@<TRIPOS>SUBSTRUCTURE
     1 R0_         1 TEMP              0 ****  ****    0 ROOT
