@<TRIPOS>MOLECULE
25_dimethylpyridine
   17    17     1     0     0
SMALL
No Charge or Current Charge


@<TRIPOS>ATOM
      1 C1          1.5680   -0.0180    1.4840 ca        1 MOL     -0.092300
      2 C2          0.3030   -0.3180    0.9910 ca        1 MOL     -0.247000
      3 C3          0.9950   -1.1500    3.4960 ca        1 MOL      0.399000
      4 C4          1.9280   -0.4380    2.7600 ca        1 MOL     -0.188600
      5 C5         -0.5580   -1.0350    1.8070 ca        1 MOL      0.406200
      6 C6          3.2740   -0.1350    3.3150 c3        1 MOL     -0.055000
      7 C7         -1.9240   -1.3740    1.3100 c3        1 MOL     -0.146000
      8 N1         -0.2440   -1.4600    3.0510 nb        1 MOL     -0.664700
      9 H1          2.2660    0.5430    0.8690 ha        1 MOL      0.136400
     10 H2          0.0090    0.0040   -0.0020 ha        1 MOL      0.140500
     11 H3          1.2190   -1.5040    4.4980 h4        1 MOL      0.020400
     12 H4          3.3040    0.8870    3.7180 hc        1 MOL      0.045100
     13 H5          3.5430   -0.8310    4.1220 hc        1 MOL      0.045100
     14 H6          4.0560   -0.2250    2.5480 hc        1 MOL      0.045100
     15 H7         -2.3290   -2.2290    1.8630 hc        1 MOL      0.051900
     16 H8         -2.6110   -0.5260    1.4270 hc        1 MOL      0.051900
     17 H9         -1.9070   -1.6250    0.2420 hc        1 MOL      0.051900
@<TRIPOS>BOND
     1    1    2 ar  
     2    1    4 ar  
     3    2    5 ar  
     4    3    4 ar  
     5    3    8 ar  
     6    4    6 1   
     7    5    7 1   
     8    5    8 ar  
     9    1    9 1   
    10    2   10 1   
    11    3   11 1   
    12    6   12 1   
    13    6   13 1   
    14    6   14 1   
    15    7   15 1   
    16    7   16 1   
    17    7   17 1   
@<TRIPOS>SUBSTRUCTURE
     1 R0_         1 TEMP              0 ****  ****    0 ROOT
