@<TRIPOS>MOLECULE
14_dimethylnaphthalene
   24    25     1     0     0
SMALL
No Charge or Current Charge


@<TRIPOS>ATOM
      1 C1         -0.5690   -2.0630    0.2180 ca        1 MOL     -0.129000
      2 C2          0.3420   -1.0310    0.0170 ca        1 MOL     -0.129000
      3 C3         -0.1300   -3.3880    0.2400 ca        1 MOL     -0.119400
      4 C4          1.6960   -1.3180   -0.1610 ca        1 MOL     -0.119400
      5 C5          3.0420   -5.3090   -0.0960 ca        1 MOL     -0.126600
      6 C6          3.9530   -4.2770   -0.2960 ca        1 MOL     -0.126600
      7 C7          1.2290   -3.6950    0.0620 ca        1 MOL     -0.030000
      8 C8          2.1550   -2.6450   -0.1410 ca        1 MOL     -0.030000
      9 C9          1.6880   -5.0220    0.0820 ca        1 MOL     -0.059200
     10 C10         3.5140   -2.9530   -0.3190 ca        1 MOL     -0.059200
     11 C11         0.7630   -6.1800    0.2940 c3        1 MOL     -0.061300
     12 C12         4.5470   -1.8910   -0.5380 c3        1 MOL     -0.061300
     13 H1         -1.6220   -1.8390    0.3560 ha        1 MOL      0.131000
     14 H2         -0.0000   -0.0000    0.0000 ha        1 MOL      0.131000
     15 H3         -0.8720   -4.1660    0.3990 ha        1 MOL      0.132300
     16 H4          2.3770   -0.4840   -0.3150 ha        1 MOL      0.132300
     17 H5          3.3960   -6.3370   -0.0810 ha        1 MOL      0.130900
     18 H6          5.0050   -4.5140   -0.4340 ha        1 MOL      0.130900
     19 H7          1.0590   -6.7400    1.1870 hc        1 MOL      0.043800
     20 H8         -0.2710   -5.8380    0.4190 hc        1 MOL      0.043800
     21 H9          0.7770   -6.8560   -0.5680 hc        1 MOL      0.043800
     22 H10         5.2200   -1.8370    0.3240 hc        1 MOL      0.043800
     23 H11         5.1390   -2.0990   -1.4360 hc        1 MOL      0.043800
     24 H12         4.0780   -0.9110   -0.6810 hc        1 MOL      0.043800
@<TRIPOS>BOND
     1    1    2 ar  
     2    1    3 ar  
     3    2    4 ar  
     4    3    7 ar  
     5    4    8 ar  
     6    5    6 ar  
     7    5    9 ar  
     8    6   10 ar  
     9    7    8 ar  
    10    7    9 ar  
    11    8   10 ar  
    12    9   11 1   
    13   10   12 1   
    14    1   13 1   
    15    2   14 1   
    16    3   15 1   
    17    4   16 1   
    18    5   17 1   
    19    6   18 1   
    20   11   19 1   
    21   11   20 1   
    22   11   21 1   
    23   12   22 1   
    24   12   23 1   
    25   12   24 1   
@<TRIPOS>SUBSTRUCTURE
     1 R0_         1 TEMP              0 ****  ****    0 ROOT
