@<TRIPOS>MOLECULE
12_ethanediol
   10     9     1     0     0
SMALL
No Charge or Current Charge


@<TRIPOS>ATOM
      1 C1         -0.8940    0.4510    0.4420 c3        1 MOL      0.097700
      2 C2         -2.1460   -0.1940   -0.1210 c3        1 MOL      0.097700
      3 O1         -0.8530    0.2360    1.8470 oh        1 MOL     -0.599700
      4 O2         -2.1050   -1.5920    0.1370 oh        1 MOL     -0.599700
      5 H1         -0.8900    1.5300    0.2610 h1        1 MOL      0.048600
      6 H2          0.0000    0.0000    0.0000 h1        1 MOL      0.048600
      7 H3         -2.2120   -0.0490   -1.2040 h1        1 MOL      0.048600
      8 H4         -3.0380    0.2180    0.3610 h1        1 MOL      0.048600
      9 H5         -0.9000    1.1110    2.2640 ho        1 MOL      0.404900
     10 H6         -2.6040   -1.7390    0.9560 ho        1 MOL      0.404900
@<TRIPOS>BOND
     1    1    2 1   
     2    1    3 1   
     3    2    4 1   
     4    1    5 1   
     5    1    6 1   
     6    2    7 1   
     7    2    8 1   
     8    3    9 1   
     9    4   10 1   
@<TRIPOS>SUBSTRUCTURE
     1 R0_         1 TEMP              0 ****  ****    0 ROOT
