@<TRIPOS>MOLECULE
ethylamine
   10     9     1     0     0
SMALL
No Charge or Current Charge


@<TRIPOS>ATOM
      1 C1         -0.2610    0.7900    0.7120 c3        1 MOL     -0.134700
      2 C2          0.0820    0.3850    2.1350 c3        1 MOL      0.150600
      3 N1          1.5070    0.1160    2.2790 n3        1 MOL     -0.906000
      4 H1          0.2720    1.7030    0.4210 hc        1 MOL      0.034900
      5 H2          0.0000    0.0000   -0.0000 hc        1 MOL      0.034900
      6 H3         -1.3340    0.9840    0.6230 hc        1 MOL      0.034900
      7 H4         -0.4830   -0.5110    2.4130 h1        1 MOL      0.049300
      8 H5         -0.2060    1.1820    2.8290 h1        1 MOL      0.049300
      9 H6          2.0100    0.5790    1.5250 hn        1 MOL      0.343500
     10 H7          1.6710   -0.8810    2.1640 hn        1 MOL      0.343500
@<TRIPOS>BOND
     1    1    2 1   
     2    2    3 1   
     3    1    4 1   
     4    1    5 1   
     5    1    6 1   
     6    2    7 1   
     7    2    8 1   
     8    3    9 1   
     9    3   10 1   
@<TRIPOS>SUBSTRUCTURE
     1 R0_         1 TEMP              0 ****  ****    0 ROOT
