@<TRIPOS>MOLECULE
ammonia
    4     3     1     0     0
SMALL
No Charge or Current Charge


@<TRIPOS>ATOM
      1 N1         -0.7260   -0.6900    0.1910 n3        1 MOL     -1.009800
      2 H1         -1.1670   -0.3990    1.0620 hn        1 MOL      0.336600
      3 H2          0.0000    0.0000    0.0000 hn        1 MOL      0.336600
      4 H3         -0.2380   -1.5600    0.4000 hn        1 MOL      0.336600
@<TRIPOS>BOND
     1    1    2 1   
     2    1    3 1   
     3    1    4 1   
@<TRIPOS>SUBSTRUCTURE
     1 R0_         1 TEMP              0 ****  ****    0 ROOT
