@<TRIPOS>MOLECULE
n_pentylcyclopentane
   30    30     1     0     0
SMALL
No Charge or Current Charge


@<TRIPOS>ATOM
      1 C1         -1.8760   -0.8500   -1.3330 c3        1 MOL     -0.079700
      2 C2         -0.9660   -1.9680   -0.8210 c3        1 MOL     -0.079700
      3 C3         -1.4100   -0.5400   -2.7520 c3        1 MOL     -0.077100
      4 C4         -0.0090   -2.2900   -1.9640 c3        1 MOL     -0.077100
      5 C5          0.0450   -0.9980   -2.7730 c3        1 MOL     -0.069700
      6 C6          1.6450    1.0180   -8.5870 c3        1 MOL     -0.089600
      7 C7          0.5910   -1.1930   -4.1770 c3        1 MOL     -0.068600
      8 C8          1.0970    1.2140   -7.1820 c3        1 MOL     -0.077600
      9 C9          0.5690    0.1110   -4.9730 c3        1 MOL     -0.076200
     10 C10         1.1510   -0.0820   -6.3740 c3        1 MOL     -0.076800
     11 H1         -2.9310   -1.1440   -1.3170 hc        1 MOL      0.039200
     12 H2         -1.7720    0.0350   -0.6950 hc        1 MOL      0.039200
     13 H3         -0.4080   -1.6200    0.0560 hc        1 MOL      0.039200
     14 H4         -1.5360   -2.8520   -0.5170 hc        1 MOL      0.039200
     15 H5         -2.0070   -1.1130   -3.4730 hc        1 MOL      0.041400
     16 H6         -1.5180    0.5210   -2.9960 hc        1 MOL      0.041400
     17 H7          0.9770   -2.5960   -1.6000 hc        1 MOL      0.041400
     18 H8         -0.4140   -3.1100   -2.5680 hc        1 MOL      0.041400
     19 H9          0.6680   -0.2630   -2.2490 hc        1 MOL      0.050100
     20 H10         2.6890    0.6900   -8.5590 hc        1 MOL      0.031300
     21 H11         1.5980    1.9570   -9.1470 hc        1 MOL      0.031300
     22 H12         1.0630    0.2680   -9.1330 hc        1 MOL      0.031300
     23 H13        -0.0060   -1.9540   -4.6920 hc        1 MOL      0.038800
     24 H14         1.6170   -1.5740   -4.1140 hc        1 MOL      0.038800
     25 H15         0.0630    1.5710   -7.2460 hc        1 MOL      0.037100
     26 H16         1.6790    1.9930   -6.6750 hc        1 MOL      0.037100
     27 H17        -0.4630    0.4770   -5.0500 hc        1 MOL      0.039200
     28 H18         1.1430    0.8770   -4.4390 hc        1 MOL      0.039200
     29 H19         2.1900   -0.4240   -6.2960 hc        1 MOL      0.037700
     30 H20         0.5910   -0.8660   -6.8990 hc        1 MOL      0.037700
@<TRIPOS>BOND
     1    1    2 1   
     2    1    3 1   
     3    2    4 1   
     4    3    5 1   
     5    4    5 1   
     6    5    7 1   
     7    6    8 1   
     8    7    9 1   
     9    8   10 1   
    10    9   10 1   
    11    1   11 1   
    12    1   12 1   
    13    2   13 1   
    14    2   14 1   
    15    3   15 1   
    16    3   16 1   
    17    4   17 1   
    18    4   18 1   
    19    5   19 1   
    20    6   20 1   
    21    6   21 1   
    22    6   22 1   
    23    7   23 1   
    24    7   24 1   
    25    8   25 1   
    26    8   26 1   
    27    9   27 1   
    28    9   28 1   
    29   10   29 1   
    30   10   30 1   
@<TRIPOS>SUBSTRUCTURE
     1 R0_         1 TEMP              0 ****  ****    0 ROOT
