@<TRIPOS>MOLECULE
CUP08008_AM1BCC_v1_0
   26    25     1     0     0
SMALL
No Charge or Current Charge


@<TRIPOS>ATOM
      1 C1          2.4780   -0.7670   -0.5650 c2        1 MOL      0.396700
      2 C2         -0.0240   -1.8310   -2.6920 c         1 MOL      0.754900
      3 C3          0.6940    0.4410    0.7490 c3        1 MOL     -0.085900
      4 C4          2.0350    1.6620   -1.0360 c3        1 MOL     -0.085900
      5 C5         -2.0370   -1.8760   -4.0900 c3        1 MOL      0.086400
      6 C6          2.9300    2.6730    1.8000 c3        1 MOL     -0.034800
      7 C7          2.0460    0.5770    0.0430 c3        1 MOL      0.001200
      8 N1          1.8500   -1.5180   -1.4240 n2        1 MOL     -0.446000
      9 N2         -1.2170   -1.2740   -3.0750 n         1 MOL     -0.557300
     10 O1          0.3860   -2.9130   -3.0930 o         1 MOL     -0.529200
     11 O2          0.6150   -0.9850   -1.8180 os        1 MOL     -0.192300
     12 S1          3.3460    0.9720    1.3350 ss        1 MOL     -0.302500
     13 H1          3.4590   -1.1630   -0.2490 h4        1 MOL      0.029400
     14 H2          0.4120    1.3500    1.2890 hc        1 MOL      0.049100
     15 H3         -0.1180    0.2500    0.0410 hc        1 MOL      0.049100
     16 H4          0.6950   -0.3940    1.4600 hc        1 MOL      0.049100
     17 H5          1.7070    2.6300   -0.6450 hc        1 MOL      0.049100
     18 H6          1.3470    1.4180   -1.8520 hc        1 MOL      0.049100
     19 H7          3.0250    1.7870   -1.4910 hc        1 MOL      0.049100
     20 H8         -1.6210   -1.6270   -5.0700 h1        1 MOL      0.048200
     21 H9         -3.0490   -1.4730   -4.0050 h1        1 MOL      0.048200
     22 H10        -2.0570   -2.9630   -3.9700 h1        1 MOL      0.048200
     23 H11         3.5690    2.9680    2.6370 h1        1 MOL      0.064500
     24 H12         1.8920    2.7620    2.1240 h1        1 MOL      0.064500
     25 H13         3.1280    3.3620    0.9750 h1        1 MOL      0.064500
     26 H14        -1.3800   -0.3190   -2.7920 hn        1 MOL      0.333000
@<TRIPOS>BOND
     1    1    7 1   
     2    1    8 2   
     3    2    9 1   
     4    2   10 2   
     5    2   11 1   
     6    3    7 1   
     7    4    7 1   
     8    5    9 1   
     9    6   12 1   
    10    7   12 1   
    11    8   11 1   
    12    1   13 1   
    13    3   14 1   
    14    3   15 1   
    15    3   16 1   
    16    4   17 1   
    17    4   18 1   
    18    4   19 1   
    19    5   20 1   
    20    5   21 1   
    21    5   22 1   
    22    6   23 1   
    23    6   24 1   
    24    6   25 1   
    25    9   26 1   
@<TRIPOS>SUBSTRUCTURE
     1 R0_         1 TEMP              0 ****  ****    0 ROOT
