@<TRIPOS>MOLECULE
hydrazine
    6     5     1     0     0
SMALL
No Charge or Current Charge


@<TRIPOS>ATOM
      1 N1         -0.8080    0.5700   -0.2480 n3        1 MOL     -0.689000
      2 N2         -1.9600   -0.2580   -0.3170 n3        1 MOL     -0.689000
      3 H1         -0.9250    1.2420    0.5080 hn        1 MOL      0.344500
      4 H2          0.0000    0.0000    0.0000 hn        1 MOL      0.344500
      5 H3         -2.0650   -0.7590    0.5640 hn        1 MOL      0.344500
      6 H4         -1.8170   -0.9700   -1.0320 hn        1 MOL      0.344500
@<TRIPOS>BOND
     1    1    2 1   
     2    1    3 1   
     3    1    4 1   
     4    2    5 1   
     5    2    6 1   
@<TRIPOS>SUBSTRUCTURE
     1 R0_         1 TEMP              0 ****  ****    0 ROOT
