@<TRIPOS>MOLECULE
333_trimethoxypropionitrile
   21    20     1     0     0
SMALL
No Charge or Current Charge


@<TRIPOS>ATOM
      1 C1          3.1390   -3.4250   -2.6730 c1        1 MOL      0.228200
      2 C2          0.8310   -0.5280   -0.4460 c3        1 MOL      0.131900
      3 C3         -0.0310   -2.7620   -3.9310 c3        1 MOL      0.131900
      4 C4          2.3470    0.6410   -3.2720 c3        1 MOL      0.131900
      5 C5          2.0630   -2.7910   -1.8910 c3        1 MOL     -0.041500
      6 C6          1.5220   -1.5010   -2.5600 c3        1 MOL      0.534500
      7 N1          3.9860   -3.9250   -3.2890 n1        1 MOL     -0.357400
      8 O1          0.4720   -0.9120   -1.7650 os        1 MOL     -0.445500
      9 O2          1.0260   -1.8140   -3.8820 os        1 MOL     -0.445500
     10 O3          2.6580   -0.6110   -2.6720 os        1 MOL     -0.445500
     11 H1          1.6860    0.1510   -0.4830 h1        1 MOL      0.043100
     12 H2          1.0830   -1.4170    0.1380 h1        1 MOL      0.043100
     13 H3         -0.0160   -0.0180    0.0190 h1        1 MOL      0.043100
     14 H4          0.3820   -3.7720   -3.8760 h1        1 MOL      0.043100
     15 H5         -0.5930   -2.6360   -4.8600 h1        1 MOL      0.043100
     16 H6         -0.6970   -2.5970   -3.0800 h1        1 MOL      0.043100
     17 H7          2.2590    1.4050   -2.4960 h1        1 MOL      0.043100
     18 H8          1.4090    0.5580   -3.8260 h1        1 MOL      0.043100
     19 H9          3.1510    0.9150   -3.9600 h1        1 MOL      0.043100
     20 H10         2.4640   -2.5590   -0.8970 hc        1 MOL      0.094400
     21 H11         1.2510   -3.5100   -1.7360 hc        1 MOL      0.094400
@<TRIPOS>BOND
     1    1    5 1   
     2    1    7 3   
     3    2    8 1   
     4    3    9 1   
     5    4   10 1   
     6    5    6 1   
     7    6    8 1   
     8    6    9 1   
     9    6   10 1   
    10    2   11 1   
    11    2   12 1   
    12    2   13 1   
    13    3   14 1   
    14    3   15 1   
    15    3   16 1   
    16    4   17 1   
    17    4   18 1   
    18    4   19 1   
    19    5   20 1   
    20    5   21 1   
@<TRIPOS>SUBSTRUCTURE
     1 R0_         1 TEMP              0 ****  ****    0 ROOT
