@<TRIPOS>MOLECULE
diethyl_sulfide
   15    14     1     0     0
SMALL
No Charge or Current Charge


@<TRIPOS>ATOM
      1 C1          0.5030   -0.3030    1.1380 c3        1 MOL     -0.087600
      2 C2          5.4940    0.2990   -0.8460 c3        1 MOL     -0.087600
      3 C3          1.8520   -0.8680    0.7340 c3        1 MOL     -0.008000
      4 C4          4.3830   -0.5610   -0.2730 c3        1 MOL     -0.008000
      5 S1          2.9260    0.4450    0.0920 ss        1 MOL     -0.315400
      6 H1          0.6030    0.4490    1.9280 hc        1 MOL      0.041600
      7 H2         -0.0140    0.1520    0.2870 hc        1 MOL      0.041600
      8 H3         -0.1360   -1.1050    1.5240 hc        1 MOL      0.041600
      9 H4          5.1880    0.7790   -1.7820 hc        1 MOL      0.041600
     10 H5          5.8050    1.0770   -0.1410 hc        1 MOL      0.041600
     11 H6          6.3700   -0.3210   -1.0630 hc        1 MOL      0.041600
     12 H7          1.7270   -1.6310   -0.0400 h1        1 MOL      0.064300
     13 H8          2.3410   -1.3340    1.5950 h1        1 MOL      0.064300
     14 H9          4.7170   -1.0460    0.6490 h1        1 MOL      0.064300
     15 H10         4.1030   -1.3420   -0.9860 h1        1 MOL      0.064300
@<TRIPOS>BOND
     1    1    3 1   
     2    2    4 1   
     3    3    5 1   
     4    4    5 1   
     5    1    6 1   
     6    1    7 1   
     7    1    8 1   
     8    2    9 1   
     9    2   10 1   
    10    2   11 1   
    11    3   12 1   
    12    3   13 1   
    13    4   14 1   
    14    4   15 1   
@<TRIPOS>SUBSTRUCTURE
     1 R0_         1 TEMP              0 ****  ****    0 ROOT
