@<TRIPOS>MOLECULE
124_trichlorobenzene
   12    12     1     0     0
SMALL
No Charge or Current Charge


@<TRIPOS>ATOM
      1 C1          1.8740   -1.0530   -0.1330 ca        1 MOL     -0.117000
      2 C2          0.8060   -0.4740    0.5520 ca        1 MOL     -0.109400
      3 C3          2.8760   -1.6930    1.9700 ca        1 MOL     -0.114500
      4 C4          2.9090   -1.6630    0.5760 ca        1 MOL      0.022700
      5 C5          0.7730   -0.5050    1.9460 ca        1 MOL      0.015400
      6 C6          1.8080   -1.1140    2.6550 ca        1 MOL      0.024500
      7 Cl1         4.2270   -2.3760   -0.2710 cl        1 MOL     -0.077800
      8 Cl2        -0.5770    0.2300    2.7370 cl        1 MOL     -0.062100
      9 Cl3         1.8240   -1.1840    4.3820 cl        1 MOL     -0.060300
     10 H1          1.8870   -1.0220   -1.2200 ha        1 MOL      0.155900
     11 H2          0.0080   -0.0040   -0.0170 ha        1 MOL      0.156700
     12 H3          3.6860   -2.1690    2.5200 ha        1 MOL      0.165900
@<TRIPOS>BOND
     1    1    2 ar  
     2    1    4 ar  
     3    2    5 ar  
     4    3    4 ar  
     5    3    6 ar  
     6    4    7 1   
     7    5    6 ar  
     8    5    8 1   
     9    6    9 1   
    10    1   10 1   
    11    2   11 1   
    12    3   12 1   
@<TRIPOS>SUBSTRUCTURE
     1 R0_         1 TEMP              0 ****  ****    0 ROOT
