@<TRIPOS>MOLECULE
SAMPL4_026
   21    20     1     0     0
SMALL
bcc


@<TRIPOS>ATOM
      1 C1         -4.4000   -1.9110    0.3530 c         1 MOL      0.634100
      2 C2         -3.6510   -2.5190   -0.7940 c3        1 MOL     -0.150100
      3 C3         -6.0370    3.6230   -1.8480 c3        1 MOL     -0.097100
      4 C4         -6.9450    2.6350   -1.1480 c3        1 MOL      0.131400
      5 C5         -6.0490   -0.3010    0.8790 c3        1 MOL      0.136400
      6 C6         -6.9520    0.7120    0.2020 c3        1 MOL      0.124400
      7 O1         -4.2410   -2.2320    1.5230 o         1 MOL     -0.544000
      8 O2         -5.2640   -0.9660   -0.1170 os        1 MOL     -0.443900
      9 O3         -6.1480    1.6700   -0.4750 os        1 MOL     -0.424600
     10 H1         -4.1970   -3.3850   -1.1750 hc        1 MOL      0.075700
     11 H2         -2.6480   -2.8070   -0.4710 hc        1 MOL      0.075700
     12 H3         -3.5600   -1.7830   -1.5980 hc        1 MOL      0.075700
     13 H4         -5.3960    4.1410   -1.1290 hc        1 MOL      0.046033
     14 H5         -5.4050    3.1140   -2.5830 hc        1 MOL      0.046033
     15 H6         -6.6250    4.3670   -2.3960 hc        1 MOL      0.046033
     16 H7         -7.5840    2.1210   -1.8730 h1        1 MOL      0.025200
     17 H8         -7.5750    3.1450   -0.4140 h1        1 MOL      0.025200
     18 H9         -6.6330   -1.0570    1.4120 h1        1 MOL      0.067700
     19 H10        -5.3680    0.1970    1.5750 h1        1 MOL      0.067700
     20 H11        -7.5690    1.2410    0.9350 h1        1 MOL      0.042700
     21 H12        -7.5940    0.2200   -0.5340 h1        1 MOL      0.042700
@<TRIPOS>BOND
     1    1    2 1   
     2    1    7 2   
     3    1    8 1   
     4    3    4 1   
     5    4    9 1   
     6    5    6 1   
     7    5    8 1   
     8    6    9 1   
     9    2   10 1   
    10    2   11 1   
    11    2   12 1   
    12    3   13 1   
    13    3   14 1   
    14    3   15 1   
    15    4   16 1   
    16    4   17 1   
    17    5   18 1   
    18    5   19 1   
    19    6   20 1   
    20    6   21 1   
@<TRIPOS>SUBSTRUCTURE
     1 TMP         1 TEMP              0 ****  ****    0 ROOT
