@<TRIPOS>MOLECULE
CUP08036_AM1BCC_v1_0
   38    37     1     0     0
SMALL
No Charge or Current Charge


@<TRIPOS>ATOM
      1 C1         -7.0170    1.4580    0.8630 c         1 MOL      0.643800
      2 C2         -4.1570    1.8720   -0.0600 c         1 MOL      0.635100
      3 C3         -7.9010    0.0210    4.0860 c3        1 MOL     -0.123800
      4 C4         -3.0820    3.9770    2.7110 c3        1 MOL     -0.118600
      5 C5         -5.5160   -4.2560    0.5400 c3        1 MOL      0.130800
      6 C6         -1.2190   -2.4630   -0.4330 c3        1 MOL      0.130800
      7 C7         -6.3720    0.7880   -0.3200 c3        1 MOL     -0.122800
      8 C8         -7.7820    1.1270    3.0560 c3        1 MOL      0.141300
      9 C9         -3.2230    3.5790    1.2550 c3        1 MOL      0.150000
     10 C10        -4.9060    0.5490    0.0030 c3        1 MOL      0.127800
     11 O1         -7.4400    2.6050    0.8460 o         1 MOL     -0.566500
     12 O2         -3.8550    2.4620   -1.0890 o         1 MOL     -0.515100
     13 O3         -7.1120    0.5940    1.9070 os        1 MOL     -0.432200
     14 O4         -3.9150    2.3260    1.2020 os        1 MOL     -0.443400
     15 O5         -4.8890   -3.4760   -0.4620 os        1 MOL     -0.487200
     16 O6         -2.4900   -3.0410   -0.6660 os        1 MOL     -0.487200
     17 P1         -3.8110   -2.3440   -0.0200 p5        1 MOL      0.863300
     18 S1         -3.6820   -2.1510    1.9170 s         1 MOL     -0.420100
     19 S2         -4.1820   -0.6300   -1.1970 ss        1 MOL     -0.462100
     20 H1         -8.4650   -0.8260    3.6780 hc        1 MOL      0.049800
     21 H2         -6.9120   -0.3590    4.3610 hc        1 MOL      0.049800
     22 H3         -8.4060    0.3790    4.9870 hc        1 MOL      0.049800
     23 H4         -4.0670    4.0670    3.1820 hc        1 MOL      0.060600
     24 H5         -2.5310    3.2130    3.2680 hc        1 MOL      0.060600
     25 H6         -2.5570    4.9320    2.8050 hc        1 MOL      0.060600
     26 H7         -6.4420   -4.6680    0.1310 h1        1 MOL      0.071800
     27 H8         -5.7560   -3.6540    1.4200 h1        1 MOL      0.071800
     28 H9         -4.8630   -5.0850    0.8250 h1        1 MOL      0.071800
     29 H10        -0.5420   -2.7840   -1.2290 h1        1 MOL      0.071800
     30 H11        -0.8230   -2.8140    0.5240 h1        1 MOL      0.071800
     31 H12        -1.2710   -1.3720   -0.4370 h1        1 MOL      0.071800
     32 H13        -6.5150    1.4070   -1.2150 hc        1 MOL      0.121200
     33 H14        -6.9180   -0.1480   -0.4900 hc        1 MOL      0.121200
     34 H15        -7.1990    1.9580    3.4670 h1        1 MOL      0.064600
     35 H16        -8.7820    1.4780    2.7760 h1        1 MOL      0.064600
     36 H17        -2.2320    3.4700    0.8000 h1        1 MOL      0.053200
     37 H18        -3.7950    4.3430    0.7170 h1        1 MOL      0.053200
     38 H19        -4.7880    0.1090    0.9990 h1        1 MOL      0.116300
@<TRIPOS>BOND
     1    1    7 1   
     2    1   11 2   
     3    1   13 1   
     4    2   10 1   
     5    2   12 2   
     6    2   14 1   
     7    3    8 1   
     8    4    9 1   
     9    5   15 1   
    10    6   16 1   
    11    7   10 1   
    12    8   13 1   
    13    9   14 1   
    14   10   19 1   
    15   15   17 1   
    16   16   17 1   
    17   17   18 2   
    18   17   19 1   
    19    3   20 1   
    20    3   21 1   
    21    3   22 1   
    22    4   23 1   
    23    4   24 1   
    24    4   25 1   
    25    5   26 1   
    26    5   27 1   
    27    5   28 1   
    28    6   29 1   
    29    6   30 1   
    30    6   31 1   
    31    7   32 1   
    32    7   33 1   
    33    8   34 1   
    34    8   35 1   
    35    9   36 1   
    36    9   37 1   
    37   10   38 1   
@<TRIPOS>SUBSTRUCTURE
     1 R0_         1 TEMP              0 ****  ****    0 ROOT
