@<TRIPOS>MOLECULE
heptan_1_ol
   24    23     1     0     0
SMALL
No Charge or Current Charge


@<TRIPOS>ATOM
      1 C1          2.0120   -2.5400   -0.1880 c3        1 MOL     -0.089800
      2 C2          1.5980   -2.9980   -1.5780 c3        1 MOL     -0.078100
      3 C3          0.0760   -3.0070   -1.7320 c3        1 MOL     -0.077000
      4 C4         -0.3960   -3.5290   -3.0910 c3        1 MOL     -0.076700
      5 C5         -1.9190   -3.6070   -3.2180 c3        1 MOL     -0.076000
      6 C6         -2.3340   -4.1560   -4.5820 c3        1 MOL     -0.116900
      7 C7         -3.8480   -4.1980   -4.7340 c3        1 MOL      0.129900
      8 O1         -4.1650   -4.7020   -6.0240 oh        1 MOL     -0.600500
      9 H1          1.6500   -1.5270    0.0150 hc        1 MOL      0.031800
     10 H2          3.1030   -2.5350   -0.1010 hc        1 MOL      0.031800
     11 H3          1.6130   -3.2090    0.5810 hc        1 MOL      0.031800
     12 H4          1.9960   -4.0030   -1.7590 hc        1 MOL      0.037700
     13 H5          2.0520   -2.3290   -2.3170 hc        1 MOL      0.037700
     14 H6         -0.3180   -1.9960   -1.5690 hc        1 MOL      0.038700
     15 H7         -0.3590   -3.6440   -0.9510 hc        1 MOL      0.038700
     16 H8          0.0100   -2.8970   -3.8900 hc        1 MOL      0.039200
     17 H9          0.0260   -4.5310   -3.2370 hc        1 MOL      0.039200
     18 H10        -2.3590   -2.6120   -3.0840 hc        1 MOL      0.041500
     19 H11        -2.3210   -4.2510   -2.4260 hc        1 MOL      0.041500
     20 H12        -1.9270   -5.1640   -4.7260 hc        1 MOL      0.046300
     21 H13        -1.9050   -3.5420   -5.3840 hc        1 MOL      0.046300
     22 H14        -4.2790   -3.1970   -4.6360 h1        1 MOL      0.043000
     23 H15        -4.2970   -4.8560   -3.9830 h1        1 MOL      0.043000
     24 H16        -3.3610   -5.1250   -6.3660 ho        1 MOL      0.397000
@<TRIPOS>BOND
     1    1    2 1   
     2    2    3 1   
     3    3    4 1   
     4    4    5 1   
     5    5    6 1   
     6    6    7 1   
     7    7    8 1   
     8    1    9 1   
     9    1   10 1   
    10    1   11 1   
    11    2   12 1   
    12    2   13 1   
    13    3   14 1   
    14    3   15 1   
    15    4   16 1   
    16    4   17 1   
    17    5   18 1   
    18    5   19 1   
    19    6   20 1   
    20    6   21 1   
    21    7   22 1   
    22    7   23 1   
    23    8   24 1   
@<TRIPOS>SUBSTRUCTURE
     1 R0_         1 TEMP              0 ****  ****    0 ROOT
