@<TRIPOS>MOLECULE
GLN
   12    11     1     0     0
SMALL
bcc


@<TRIPOS>ATOM
      1 C4          0.6600    1.0100   -1.5600 c3        1 MOL      -0.1005
      2 H1          1.2200    0.1700   -1.9800 hc        1 MOL       0.0365
      3 H2         -0.3300    1.0100   -2.0300 hc        1 MOL       0.0375
      4 H3          1.1300    1.9600   -1.8300 hc        1 MOL       0.0464
      5 C3          0.5100    1.0500   -0.0400 c3        1 MOL      -0.1534
      6 H4         -0.0500    1.9200    0.3200 hc        1 MOL       0.0781
      7 H5          1.4800    1.1700    0.4400 hc        1 MOL       0.0773
      8 C1         -0.0300   -0.2800    0.4700 c         1 MOL       0.6558
      9 O1         -0.2000   -0.4400    1.6700 o         1 MOL      -0.6229
     10 N2         -0.2400   -1.2300   -0.4400 n         1 MOL      -0.6765
     11 H6         -0.2300   -1.0600   -1.4300 hn        1 MOL       0.3065
     12 H7         -0.7400   -2.0300   -0.0700 hn        1 MOL       0.3154
@<TRIPOS>BOND
     1    1    2 1   
     2    1    3 1   
     3    1    4 1   
     4    1    5 1   
     5    5    6 1   
     6    5    7 1   
     7    5    8 1   
     8    8    9 2   
     9    8   10 am  
    10   10   11 1   
    11   10   12 1   
@<TRIPOS>SUBSTRUCTURE
     1 GLN         1 TEMP              0 ****  ****    0 ROOT
