@<TRIPOS>MOLECULE
1_bromooctane
   26    25     1     0     0
SMALL
No Charge or Current Charge


@<TRIPOS>ATOM
      1 C1          0.5950   -1.0180   -2.9610 c3        1 MOL     -0.089800
      2 C2         -0.8350   -1.1670   -3.4590 c3        1 MOL     -0.078000
      3 C3         -1.7300   -1.8130   -2.4010 c3        1 MOL     -0.077000
      4 C4         -3.1850   -1.9730   -2.8510 c3        1 MOL     -0.076400
      5 C5         -4.0650   -2.6860   -1.8210 c3        1 MOL     -0.076000
      6 C6         -5.5000   -2.8390   -2.3300 c3        1 MOL     -0.079400
      7 C7         -6.3750   -3.5800   -1.3180 c3        1 MOL     -0.078600
      8 C8         -7.7870   -3.7640   -1.8470 c3        1 MOL     -0.005600
      9 Br1        -8.8810   -4.6590   -0.5090 br        1 MOL     -0.181400
     10 H1          1.0290   -1.9940   -2.7180 hc        1 MOL      0.031800
     11 H2          1.2180   -0.5510   -3.7300 hc        1 MOL      0.031800
     12 H3          0.6340   -0.3910   -2.0640 hc        1 MOL      0.031800
     13 H4         -0.8360   -1.7750   -4.3710 hc        1 MOL      0.037600
     14 H5         -1.2160   -0.1750   -3.7270 hc        1 MOL      0.037600
     15 H6         -1.3370   -2.8080   -2.1590 hc        1 MOL      0.038600
     16 H7         -1.6940   -1.2260   -1.4760 hc        1 MOL      0.038600
     17 H8         -3.6090   -0.9890   -3.0820 hc        1 MOL      0.039300
     18 H9         -3.1920   -2.5470   -3.7860 hc        1 MOL      0.039300
     19 H10        -4.0780   -2.1210   -0.8820 hc        1 MOL      0.039300
     20 H11        -3.6460   -3.6750   -1.6010 hc        1 MOL      0.039300
     21 H12        -5.9270   -1.8480   -2.5290 hc        1 MOL      0.043600
     22 H13        -5.4960   -3.3860   -3.2810 hc        1 MOL      0.043600
     23 H14        -6.3980   -3.0190   -0.3740 hc        1 MOL      0.054100
     24 H15        -5.9280   -4.5570   -1.0930 hc        1 MOL      0.054100
     25 H16        -8.2720   -2.8070   -2.0590 h1        1 MOL      0.070900
     26 H17        -7.8100   -4.3920   -2.7410 h1        1 MOL      0.070900
@<TRIPOS>BOND
     1    1    2 1   
     2    2    3 1   
     3    3    4 1   
     4    4    5 1   
     5    5    6 1   
     6    6    7 1   
     7    7    8 1   
     8    8    9 1   
     9    1   10 1   
    10    1   11 1   
    11    1   12 1   
    12    2   13 1   
    13    2   14 1   
    14    3   15 1   
    15    3   16 1   
    16    4   17 1   
    17    4   18 1   
    18    5   19 1   
    19    5   20 1   
    20    6   21 1   
    21    6   22 1   
    22    7   23 1   
    23    7   24 1   
    24    8   25 1   
    25    8   26 1   
@<TRIPOS>SUBSTRUCTURE
     1 R0_         1 TEMP              0 ****  ****    0 ROOT
