@<TRIPOS>MOLECULE
CUP08050_AM1BCC_v1_0
   25    25     0     0     0
SMALL
USER_CHARGES

@<TRIPOS>ATOM
      1 C1          2.2914   -1.7056   -0.6571 C.ar      1 MOL         0.9448
      2 C2          3.0669   -1.7944   -2.7836 C.ar      1 MOL         0.9448
      3 C3          1.0636   -2.5696   -2.2752 C.ar      1 MOL         0.8099
      4 C4          3.7625   -1.1271    2.6916 C.3       1 MOL        -0.1119
      5 C5          5.8351   -0.2231   -4.6765 C.3       1 MOL        -0.1119
      6 C6          3.7745   -1.4577    1.2073 C.3       1 MOL         0.2287
      7 C7          4.8530   -0.3815   -3.5263 C.3       1 MOL         0.2287
      8 N1          3.2714   -1.4495   -1.5170 N.ar      1 MOL        -0.8470
      9 N2          1.1501   -2.2780   -0.9866 N.ar      1 MOL        -0.8184
     10 N3          1.9617   -2.3620   -3.2256 N.ar      1 MOL        -0.8184
     11 N4          2.4241   -1.3589    0.6821 N.pl3     1 MOL        -0.8624
     12 N5          4.0518   -1.5741   -3.7390 N.pl3     1 MOL        -0.8624
     13 Cl1        -0.3948   -3.3093   -2.7760 Cl        1 MOL        -0.1197
     14 H1          3.3810   -0.1152    2.8653 H         1 MOL         0.0457
     15 H2          3.1249   -1.8248    3.2448 H         1 MOL         0.0457
     16 H3          4.7743   -1.1877    3.1041 H         1 MOL         0.0457
     17 H4          6.4993   -1.0908   -4.7472 H         1 MOL         0.0457
     18 H5          5.3094   -0.1251   -5.6322 H         1 MOL         0.0457
     19 H6          6.4513    0.6697   -4.5320 H         1 MOL         0.0457
     20 H7          4.1701   -2.4712    1.0690 H         1 MOL         0.0519
     21 H8          4.4431   -0.7530    0.6987 H         1 MOL         0.0519
     22 H9          4.2145    0.5089   -3.4749 H         1 MOL         0.0519
     23 H10         5.4207   -0.4547   -2.5910 H         1 MOL         0.0519
     24 H11         1.7198   -1.8853    1.1892 H         1 MOL         0.4565
     25 H12         3.5972   -1.6375   -4.6444 H         1 MOL         0.4565
@<TRIPOS>BOND
     1    1    8 ar
     2    1    9 ar
     3    1   11 1
     4    2    8 ar
     5    2   10 ar
     6    2   12 1
     7    3    9 ar
     8    3   10 ar
     9    3   13 1
    10    4    6 1
    11    5    7 1
    12    6   11 1
    13    7   12 1
    14    4   14 1
    15    4   15 1
    16    4   16 1
    17    5   17 1
    18    5   18 1
    19    5   19 1
    20    6   20 1
    21    6   21 1
    22    7   22 1
    23    7   23 1
    24   11   24 1
    25   12   25 1
