@<TRIPOS>MOLECULE
3_chloroprop_1_ene
    9     8     0     0     0
SMALL
USER_CHARGES

@<TRIPOS>ATOM
      1 C1         -0.5247   -0.5544    0.7701 C.2       1 MOL        -0.1945
      2 C2         -0.5340   -1.8920    0.7869 C.2       1 MOL        -0.0285
      3 C3          0.1485   -2.7409   -0.2330 C.3       1 MOL         0.0730
      4 Cl1         1.3432   -3.7928    0.5551 Cl        1 MOL        -0.1948
      5 H1         -1.0468    0.0082    1.5364 H         1 MOL         0.1182
      6 H2          0.0000   -0.0000    0.0000 H         1 MOL         0.1182
      7 H3         -1.0822   -2.3969    1.5784 H         1 MOL        -0.0285
      8 H4         -0.5802   -3.3788   -0.7416 H         1 MOL         0.0685
      9 H5          0.6730   -2.1466   -0.9874 H         1 MOL         0.0685
@<TRIPOS>BOND
     1    1    2 2
     2    2    3 1
     3    3    4 1
     4    1    5 1
     5    1    6 1
     6    2    7 1
     7    3    8 1
     8    3    9 1
