@<TRIPOS>MOLECULE
3_hydroxybenzaldehyde
   15    15     0     0     0
SMALL
USER_CHARGES

@<TRIPOS>ATOM
      1 C1          0.8324   -0.3948    0.5751 C.ar      1 MOL        -0.1058
      2 C2          1.8991   -1.0135   -0.0768 C.ar      1 MOL        -0.1158
      3 C3          0.8349   -0.2829    1.9655 C.ar      1 MOL        -0.1840
      4 C4          2.9708   -1.4085    2.0522 C.ar      1 MOL        -0.1062
      5 C5          2.9683   -1.5204    0.6618 C.ar      1 MOL        -0.1634
      6 C6          1.9042   -0.7896    2.7040 C.ar      1 MOL         0.1109
      7 C7          4.0810   -2.1648   -0.0178 C.2       1 MOL         0.5714
      8 O1          4.1376   -2.2944   -1.2438 O.2       1 MOL        -0.5198
      9 O2          1.9072   -0.6793    4.0605 O.3       1 MOL        -0.4957
     10 H1         -0.0004   -0.0010   -0.0000 H         1 MOL         0.1391
     11 H2          1.8875   -1.0945   -1.1608 H         1 MOL         0.1467
     12 H3          0.0018    0.2017    2.4672 H         1 MOL         0.1373
     13 H4          3.8022   -1.8019    2.6325 H         1 MOL         0.1626
     14 H5          4.9100   -2.5530    0.6131 H         1 MOL         0.0011
     15 H6          1.2270   -0.0335    4.3255 H         1 MOL         0.4215
@<TRIPOS>BOND
     1    1    2 ar
     2    1    3 ar
     3    2    5 ar
     4    3    6 ar
     5    4    5 ar
     6    4    6 ar
     7    5    7 1
     8    6    9 1
     9    7    8 2
    10    1   10 1
    11    2   11 1
    12    3   12 1
    13    4   13 1
    14    7   14 1
    15    9   15 1
