@<TRIPOS>MOLECULE
3_methyl_but_1_ene
   15    14     0     0     0
SMALL
USER_CHARGES

@<TRIPOS>ATOM
      1 C1          0.9502   -0.5096    0.1168 C.2       1 MOL        -0.2242
      2 C2          1.0894   -1.4836    1.0237 C.2       1 MOL        -0.1613
      3 C3          0.3870   -1.7197    3.4007 C.3       1 MOL        -0.0845
      4 C4         -0.3339   -3.4146    1.6914 C.3       1 MOL        -0.0845
      5 C5         -0.0137   -1.9412    1.9424 C.3       1 MOL        -0.0374
      6 H1          1.7708   -0.2103   -0.5257 H         1 MOL         0.1108
      7 H2          0.0025    0.0058    0.0059 H         1 MOL         0.1108
      8 H3          2.0543   -1.9783    1.1080 H         1 MOL         0.1166
      9 H4         -0.4211   -2.0250    4.0742 H         1 MOL         0.0340
     10 H5          0.5994   -0.6620    3.5929 H         1 MOL         0.0340
     11 H6          1.2809   -2.2963    3.6654 H         1 MOL         0.0340
     12 H7          0.5322   -4.0556    1.8917 H         1 MOL         0.0340
     13 H8         -1.1540   -3.7472    2.3367 H         1 MOL         0.0340
     14 H9         -0.6406   -3.5780    0.6522 H         1 MOL         0.0340
     15 H10        -0.9243   -1.3595    1.7496 H         1 MOL         0.0496
@<TRIPOS>BOND
     1    1    2 2
     2    2    5 1
     3    3    5 1
     4    4    5 1
     5    1    6 1
     6    1    7 1
     7    2    8 1
     8    3    9 1
     9    3   10 1
    10    3   11 1
    11    4   12 1
    12    4   13 1
    13    4   14 1
    14    5   15 1
