@<TRIPOS>MOLECULE
SAMPL4_035
   15    15     0     0     0
SMALL
USER_CHARGES

@<TRIPOS>ATOM
      1 C1          2.6000   -1.4240   -0.3850 C.ar      1 MOL        -0.1850
      2 C2          3.4990   -1.9540    0.5400 C.ar      1 MOL        -0.0610
      3 C3          1.4370   -0.7930    0.0550 C.ar      1 MOL        -0.0510
      4 C4          3.2350   -1.8520    1.9060 C.ar      1 MOL        -0.1820
      5 C5          1.1720   -0.6910    1.4210 C.ar      1 MOL        -0.2926
      6 C6          2.0710   -1.2200    2.3460 C.ar      1 MOL         0.2101
      7 C7         -0.0480   -0.0280    1.8590 C.2       1 MOL         0.5905
      8 O1         -0.3530    0.1020    3.0460 O.2       1 MOL        -0.5641
      9 O2          1.8320   -1.1290    3.6850 O.3       1 MOL        -0.4991
     10 H1          2.8060   -1.5030   -1.4490 H         1 MOL         0.1390
     11 H2          4.4040   -2.4460    0.1970 H         1 MOL         0.1390
     12 H3          0.7440   -0.3830   -0.6760 H         1 MOL         0.1340
     13 H4          3.9390   -2.2670    2.6220 H         1 MOL         0.1570
     14 H5         -0.7210    0.3720    1.0710 H         1 MOL         0.0062
     15 H6          0.9930   -0.6690    3.8440 H         1 MOL         0.4590
@<TRIPOS>BOND
     1    1    2 ar
     2    1    3 ar
     3    2    4 ar
     4    3    5 ar
     5    4    6 ar
     6    5    6 ar
     7    5    7 1
     8    6    9 1
     9    7    8 2
    10    1   10 1
    11    2   11 1
    12    3   12 1
    13    4   13 1
    14    7   14 1
    15    9   15 1
