@<TRIPOS>MOLECULE
CUP08015_AM1BCC_v1_0
   26    27     0     0     0
SMALL
USER_CHARGES

@<TRIPOS>ATOM
      1 C1         -0.5088   -2.0523    0.6871 C.ar      1 MOL        -0.1224
      2 C2          0.2916   -1.0157    0.2201 C.ar      1 MOL        -0.1325
      3 C3          2.9960   -5.2804   -0.3576 C.ar      1 MOL        -0.1089
      4 C4         -0.0371   -3.3653    0.6547 C.ar      1 MOL        -0.1256
      5 C5          1.5646   -1.2914   -0.2815 C.ar      1 MOL        -0.1027
      6 C6          1.7206   -4.9832    0.1284 C.ar      1 MOL        -0.1256
      7 C7          3.8129   -4.2599   -0.8302 C.ar      1 MOL        -0.1409
      8 C8          1.2420   -3.6606    0.1546 C.ar      1 MOL        -0.0255
      9 C9          2.0606   -2.6119   -0.3259 C.ar      1 MOL        -0.0375
     10 C10         3.3370   -2.9466   -0.8270 C.ar      1 MOL         0.1338
     11 C11         4.2491   -1.7964   -2.6432 C.2       1 MOL         0.7343
     12 C12         5.4641   -0.4815   -4.3202 C.3       1 MOL         0.0801
     13 N1          5.1047   -0.7769   -2.9606 N.am      1 MOL        -0.5330
     14 O1          3.6460   -2.4751   -3.4626 O.2       1 MOL        -0.5597
     15 O2          4.2002   -1.9307   -1.2657 O.3       1 MOL        -0.3747
     16 H1         -1.5015   -1.8415    1.0759 H         1 MOL         0.1324
     17 H2         -0.0735    0.0077    0.2421 H         1 MOL         0.1327
     18 H3          3.3479   -6.3086   -0.3671 H         1 MOL         0.1372
     19 H4         -0.6791   -4.1616    1.0249 H         1 MOL         0.1343
     20 H5          2.1714   -0.4654   -0.6448 H         1 MOL         0.1413
     21 H6          1.0974   -5.7978    0.4922 H         1 MOL         0.1343
     22 H7          4.8057   -4.4852   -1.2072 H         1 MOL         0.1576
     23 H8          6.2492   -1.1752   -4.6320 H         1 MOL         0.0495
     24 H9          5.8381    0.5437   -4.3664 H         1 MOL         0.0495
     25 H10         4.5982   -0.5935   -4.9782 H         1 MOL         0.0495
     26 H11         5.6372   -0.3867   -2.1957 H         1 MOL         0.3222
@<TRIPOS>BOND
     1    1    2 ar
     2    1    4 ar
     3    2    5 ar
     4    3    6 ar
     5    3    7 ar
     6    4    8 ar
     7    5    9 ar
     8    6    8 ar
     9    7   10 ar
    10    8    9 ar
    11    9   10 ar
    12   10   15 1
    13   11   13 am
    14   11   14 2
    15   11   15 1
    16   12   13 1
    17    1   16 1
    18    2   17 1
    19    3   18 1
    20    4   19 1
    21    5   20 1
    22    6   21 1
    23    7   22 1
    24   12   23 1
    25   12   24 1
    26   12   25 1
    27   13   26 1
