@<TRIPOS>MOLECULE
SAMPL4_029
   23    22     0     0     0
SMALL
USER_CHARGES

@<TRIPOS>ATOM
      1 C1         -7.7170    4.9230   -1.8210 C.3       1 MOL        -0.0931
      2 C2         -6.9160    3.6580   -2.0940 C.3       1 MOL        -0.0804
      3 C3         -6.8860    2.7420   -0.8700 C.3       1 MOL        -0.0794
      4 C4         -6.0320    1.4870   -1.0700 C.3       1 MOL        -0.0784
      5 C5         -6.0220    0.5600    0.1440 C.3       1 MOL        -0.0874
      6 C6         -5.1340   -0.6560   -0.0890 C.3       1 MOL         0.1334
      7 N1         -4.3780   -2.6560    0.9540 N.3       1 MOL         0.3772
      8 O1         -4.4250   -3.3640    1.9610 O.3       1 MOL        -0.1845
      9 O2         -3.7530   -2.8230   -0.0950 O.3       1 MOL        -0.1845
     10 O3         -5.1780   -1.4840    1.0650 O.3       1 MOL        -0.3500
     11 H1         -8.7420    4.6680   -1.5350 H         1 MOL         0.0350
     12 H2         -7.2700    5.5010   -1.0050 H         1 MOL         0.0350
     13 H3         -7.7610    5.5600   -2.7100 H         1 MOL         0.0350
     14 H4         -5.8940    3.9350   -2.3780 H         1 MOL         0.0397
     15 H5         -7.3640    3.1390   -2.9480 H         1 MOL         0.0397
     16 H6         -7.9090    2.4520   -0.5990 H         1 MOL         0.0437
     17 H7         -6.4800    3.3000   -0.0170 H         1 MOL         0.0437
     18 H8         -5.0040    1.8050   -1.2850 H         1 MOL         0.0447
     19 H9         -6.3840    0.9390   -1.9520 H         1 MOL         0.0447
     20 H10        -7.0360    0.2170    0.3810 H         1 MOL         0.0647
     21 H11        -5.6710    1.1000    1.0330 H         1 MOL         0.0647
     22 H12        -5.4850   -1.2360   -0.9480 H         1 MOL         0.0677
     23 H13        -4.0960   -0.3550   -0.2620 H         1 MOL         0.0677
@<TRIPOS>BOND
     1    1    2 1
     2    2    3 1
     3    3    4 1
     4    4    5 1
     5    5    6 1
     6    6   10 1
     7    7    8 1
     8    7    9 1
     9    7   10 1
    10    1   11 1
    11    1   12 1
    12    1   13 1
    13    2   14 1
    14    2   15 1
    15    3   16 1
    16    3   17 1
    17    4   18 1
    18    4   19 1
    19    5   20 1
    20    5   21 1
    21    6   22 1
    22    6   23 1
