@<TRIPOS>MOLECULE
3_methylheptane
   26    25     0     0     0
SMALL
USER_CHARGES

@<TRIPOS>ATOM
      1 C1          0.6894    1.0466    8.6992 C.3       1 MOL        -0.0896
      2 C2          3.6444   -2.3863    2.5257 C.3       1 MOL        -0.0893
      3 C3          2.7217    0.2285    3.8077 C.3       1 MOL        -0.0870
      4 C4          1.6984    0.0673    8.1206 C.3       1 MOL        -0.0785
      5 C5          3.6299   -2.1367    4.0275 C.3       1 MOL        -0.0746
      6 C6          1.5498   -0.0602    6.6032 C.3       1 MOL        -0.0767
      7 C7          2.5949   -1.0190    6.0236 C.3       1 MOL        -0.0727
      8 C8          2.5482   -1.1349    4.4840 C.3       1 MOL        -0.0633
      9 H1          0.8234    2.0458    8.2725 H         1 MOL         0.0311
     10 H2         -0.3355    0.7203    8.4955 H         1 MOL         0.0311
     11 H3          0.8128    1.1209    9.7843 H         1 MOL         0.0311
     12 H4          2.7479   -2.9188    2.1964 H         1 MOL         0.0315
     13 H5          4.5083   -3.0031    2.2575 H         1 MOL         0.0315
     14 H6          3.7151   -1.4456    1.9710 H         1 MOL         0.0315
     15 H7          1.9398    0.9292    4.1146 H         1 MOL         0.0323
     16 H8          3.6920    0.6717    4.0554 H         1 MOL         0.0323
     17 H9          2.6531    0.1470    2.7191 H         1 MOL         0.0323
     18 H10         2.7107    0.4067    8.3691 H         1 MOL         0.0375
     19 H11         1.5594   -0.9129    8.5914 H         1 MOL         0.0375
     20 H12         4.6173   -1.7526    4.3129 H         1 MOL         0.0372
     21 H13         3.5014   -3.0930    4.5494 H         1 MOL         0.0372
     22 H14         0.5402   -0.4186    6.3753 H         1 MOL         0.0388
     23 H15         1.6593    0.9277    6.1399 H         1 MOL         0.0388
     24 H16         2.4676   -2.0120    6.4736 H         1 MOL         0.0376
     25 H17         3.5910   -0.6658    6.3206 H         1 MOL         0.0376
     26 H18         1.5666   -1.5356    4.1988 H         1 MOL         0.0443
@<TRIPOS>BOND
     1    1    4 1
     2    2    5 1
     3    3    8 1
     4    4    6 1
     5    5    8 1
     6    6    7 1
     7    7    8 1
     8    1    9 1
     9    1   10 1
    10    1   11 1
    11    2   12 1
    12    2   13 1
    13    2   14 1
    14    3   15 1
    15    3   16 1
    16    3   17 1
    17    4   18 1
    18    4   19 1
    19    5   20 1
    20    5   21 1
    21    6   22 1
    22    6   23 1
    23    7   24 1
    24    7   25 1
    25    8   26 1
