@<TRIPOS>MOLECULE
124_trimethylbenzene
   21    21     0     0     0
SMALL
USER_CHARGES

@<TRIPOS>ATOM
      1 C1          1.8743   -1.0531   -0.1334 C.ar      1 MOL        -0.1318
      2 C2          0.8060   -0.4743    0.5520 C.ar      1 MOL        -0.1234
      3 C3          2.8764   -1.6932    1.9697 C.ar      1 MOL        -0.1272
      4 C4          2.9095   -1.6626    0.5756 C.ar      1 MOL        -0.0693
      5 C5          0.7731   -0.5047    1.9461 C.ar      1 MOL        -0.0732
      6 C6          1.8083   -1.1142    2.6550 C.ar      1 MOL        -0.0652
      7 C7          4.0520   -2.2807   -0.1570 C.3       1 MOL        -0.0590
      8 C8         -0.3817    0.1205    2.6576 C.3       1 MOL        -0.0576
      9 C9          1.7932   -1.1609    4.1477 C.3       1 MOL        -0.0586
     10 H1          1.8919   -1.0244   -1.2196 H         1 MOL         0.1296
     11 H2          0.0045   -0.0016   -0.0097 H         1 MOL         0.1292
     12 H3          3.6843   -2.1680    2.5217 H         1 MOL         0.1296
     13 H4          4.8290   -2.6014    0.5477 H         1 MOL         0.0420
     14 H5          3.7274   -3.1538   -0.7378 H         1 MOL         0.0420
     15 H6          4.4981   -1.5739   -0.8688 H         1 MOL         0.0420
     16 H7         -0.3135   -0.0718    3.7346 H         1 MOL         0.0417
     17 H8         -0.4059    1.2053    2.4969 H         1 MOL         0.0417
     18 H9         -1.3358   -0.2780    2.2909 H         1 MOL         0.0417
     19 H10         2.6837   -0.6660    4.5523 H         1 MOL         0.0420
     20 H11         0.9029   -0.6628    4.5509 H         1 MOL         0.0420
     21 H12         1.7725   -2.1957    4.5116 H         1 MOL         0.0420
@<TRIPOS>BOND
     1    1    2 ar
     2    1    4 ar
     3    2    5 ar
     4    3    4 ar
     5    3    6 ar
     6    4    7 1
     7    5    6 ar
     8    5    8 1
     9    6    9 1
    10    1   10 1
    11    2   11 1
    12    3   12 1
    13    7   13 1
    14    7   14 1
    15    7   15 1
    16    8   16 1
    17    8   17 1
    18    8   18 1
    19    9   19 1
    20    9   20 1
    21    9   21 1
