@<TRIPOS>MOLECULE
1,2,3,4-tetrachloro-5-(2,3,4-trichlorophenyl)benzene
   22    23     0     0     0
SMALL
USER_CHARGES

@<TRIPOS>ATOM
      1 C1          1.8851   -1.0363   -0.1124 C.ar      1 MOL        -0.0921
      2 C2          0.8066   -0.4630    0.5610 C.ar      1 MOL        -0.1206
      3 C3          5.1055   -1.3915   -0.4445 C.ar      1 MOL        -0.0931
      4 C4          2.9210   -1.6309    0.6081 C.ar      1 MOL        -0.0406
      5 C5          4.0187   -2.2123   -0.1433 C.ar      1 MOL        -0.0264
      6 C6          0.7638   -0.4841    1.9551 C.ar      1 MOL         0.0311
      7 C7          6.1857   -1.9010   -1.1651 C.ar      1 MOL         0.0191
      8 C8          2.8783   -1.6520    2.0022 C.ar      1 MOL         0.0441
      9 C9          4.0121   -3.5426   -0.5626 C.ar      1 MOL         0.0406
     10 C10         1.7997   -1.0786    2.6757 C.ar      1 MOL         0.0131
     11 C11         6.1792   -3.2313   -1.5843 C.ar      1 MOL         0.0280
     12 C12         5.0924   -4.0522   -1.2831 C.ar      1 MOL         0.0191
     13 Cl1        -0.6068    0.2475    2.7175 Cl        1 MOL        -0.0559
     14 Cl2         7.4958   -0.8206   -1.5004 Cl        1 MOL        -0.0514
     15 Cl3         4.1808   -2.3988    2.8842 Cl        1 MOL        -0.0459
     16 Cl4         2.6450   -4.5500   -0.1745 Cl        1 MOL        -0.0415
     17 Cl5         1.7358   -1.0991    4.4145 Cl        1 MOL        -0.0390
     18 Cl6         7.5337   -3.8524   -2.4844 Cl        1 MOL        -0.0338
     19 Cl7         5.0828   -5.7147   -1.8050 Cl        1 MOL        -0.0346
     20 H1          1.9014   -1.0104   -1.1996 H         1 MOL         0.1549
     21 H2          0.0083   -0.0042   -0.0172 H         1 MOL         0.1581
     22 H3          5.1105   -0.3531   -0.1171 H         1 MOL         0.1669
@<TRIPOS>BOND
     1    1    2 ar
     2    1    4 ar
     3    2    6 ar
     4    3    5 ar
     5    3    7 ar
     6    4    5 1
     7    4    8 ar
     8    5    9 ar
     9    6   10 ar
    10    6   13 1
    11    7   11 ar
    12    7   14 1
    13    8   10 ar
    14    8   15 1
    15    9   12 ar
    16    9   16 1
    17   10   17 1
    18   11   12 ar
    19   11   18 1
    20   12   19 1
    21    1   20 1
    22    2   21 1
    23    3   22 1
