@<TRIPOS>MOLECULE
4_methylbenzaldehyde
   17    17     0     0     0
SMALL
USER_CHARGES

@<TRIPOS>ATOM
      1 C1          0.8178   -0.4385    0.5644 C.ar      1 MOL        -0.0737
      2 C2          2.9371   -1.5972    0.6197 C.ar      1 MOL        -0.0737
      3 C3          0.7994   -0.4058    1.9588 C.ar      1 MOL        -0.1480
      4 C4          2.9185   -1.5646    2.0141 C.ar      1 MOL        -0.1480
      5 C5          1.8867   -1.0341   -0.1051 C.ar      1 MOL        -0.2035
      6 C6          1.8497   -0.9689    2.6836 C.ar      1 MOL        -0.0331
      7 C7          1.9055   -1.0700   -1.5589 C.2       1 MOL         0.5735
      8 C8          1.8299   -0.9327    4.1745 C.3       1 MOL        -0.0682
      9 O1          2.8220   -1.5813   -2.2083 O.2       1 MOL        -0.5283
     10 H1         -0.0059    0.0032    0.0092 H         1 MOL         0.1435
     11 H2          3.7746   -2.0647    0.1081 H         1 MOL         0.1435
     12 H3         -0.0372    0.0603    2.4723 H         1 MOL         0.1371
     13 H4          3.7415   -2.0051    2.5705 H         1 MOL         0.1371
     14 H5          1.0459   -0.6098   -2.0931 H         1 MOL        -0.0034
     15 H6          2.7333   -0.4417    4.5566 H         1 MOL         0.0484
     16 H7          0.9533   -0.3880    4.5482 H         1 MOL         0.0484
     17 H8          1.7788   -1.9448    4.5969 H         1 MOL         0.0484
@<TRIPOS>BOND
     1    1    3 ar
     2    1    5 ar
     3    2    4 ar
     4    2    5 ar
     5    3    6 ar
     6    4    6 ar
     7    5    7 1
     8    6    8 1
     9    7    9 2
    10    1   10 1
    11    2   11 1
    12    3   12 1
    13    4   13 1
    14    7   14 1
    15    8   15 1
    16    8   16 1
    17    8   17 1
