@<TRIPOS>MOLECULE
23_dimethylnaphthalene
   24    25     0     0     0
SMALL
USER_CHARGES

@<TRIPOS>ATOM
      1 C1         -0.5710   -2.0558    0.2748 C.ar      1 MOL        -0.1291
      2 C2          0.3374   -1.0322    0.0227 C.ar      1 MOL        -0.1291
      3 C3         -0.1389   -3.3821    0.3036 C.ar      1 MOL        -0.1173
      4 C4          1.6817   -1.3308   -0.2013 C.ar      1 MOL        -0.1173
      5 C5          1.6634   -5.0301    0.1058 C.ar      1 MOL        -0.1183
      6 C6          3.4839   -2.9787   -0.3987 C.ar      1 MOL        -0.1183
      7 C7          1.2105   -3.7009    0.0804 C.ar      1 MOL        -0.0359
      8 C8          2.1345   -2.6600   -0.1755 C.ar      1 MOL        -0.0359
      9 C9          3.0079   -5.3284   -0.1178 C.ar      1 MOL        -0.0631
     10 C10         3.9165   -4.3048   -0.3696 C.ar      1 MOL        -0.0631
     11 C11         3.4494   -6.7551   -0.0813 C.3       1 MOL        -0.0598
     12 C12         5.3601   -4.6015   -0.6124 C.3       1 MOL        -0.0598
     13 H1         -1.6179   -1.8237    0.4485 H         1 MOL         0.1308
     14 H2          0.0003    0.0001    0.0007 H         1 MOL         0.1308
     15 H3         -0.8666   -4.1660    0.5024 H         1 MOL         0.1312
     16 H4          2.3743   -0.5143   -0.3954 H         1 MOL         0.1312
     17 H5          0.9628   -5.8401    0.3020 H         1 MOL         0.1317
     18 H6          4.2044   -2.1868   -0.5972 H         1 MOL         0.1317
     19 H7          4.1136   -6.9250    0.7739 H         1 MOL         0.0433
     20 H8          2.5912   -7.4332    0.0020 H         1 MOL         0.0433
     21 H9          3.9841   -7.0277   -0.9994 H         1 MOL         0.0433
     22 H10         5.9515   -4.3653    0.2797 H         1 MOL         0.0433
     23 H11         5.5107   -5.6589   -0.8620 H         1 MOL         0.0433
     24 H12         5.7486   -4.0159   -1.4548 H         1 MOL         0.0433
@<TRIPOS>BOND
     1    1    2 ar
     2    1    3 ar
     3    2    4 ar
     4    3    7 ar
     5    4    8 ar
     6    5    7 ar
     7    5    9 ar
     8    6    8 ar
     9    6   10 ar
    10    7    8 ar
    11    9   10 ar
    12    9   11 1
    13   10   12 1
    14    1   13 1
    15    2   14 1
    16    3   15 1
    17    4   16 1
    18    5   17 1
    19    6   18 1
    20   11   19 1
    21   11   20 1
    22   11   21 1
    23   12   22 1
    24   12   23 1
    25   12   24 1
