@<TRIPOS>MOLECULE
anisole
   16    16     0     0     0
SMALL
USER_CHARGES

@<TRIPOS>ATOM
      1 C1          1.8846   -1.0376   -0.1090 C.ar      1 MOL        -0.1648
      2 C2          0.8176   -0.4410    0.5626 C.ar      1 MOL        -0.0978
      3 C3          2.9348   -1.6038    0.6137 C.ar      1 MOL        -0.0978
      4 C4          0.8008   -0.4105    1.9570 C.ar      1 MOL        -0.1797
      5 C5          2.9180   -1.5734    2.0082 C.ar      1 MOL        -0.1797
      6 C6          1.8509   -0.9767    2.6799 C.ar      1 MOL         0.1232
      7 C7          0.7128   -0.3225    4.6630 C.3       1 MOL         0.1176
      8 O1          1.8342   -0.9476    4.0403 O.3       1 MOL        -0.3297
      9 H1          1.8990   -1.0598   -1.1948 H         1 MOL         0.1324
     10 H2         -0.0004   -0.0007   -0.0000 H         1 MOL         0.1319
     11 H3          3.7656   -2.0682    0.0905 H         1 MOL         0.1319
     12 H4         -0.0336    0.0549    2.4746 H         1 MOL         0.1420
     13 H5          3.7386   -2.0165    2.5657 H         1 MOL         0.1420
     14 H6         -0.1067   -1.0406    4.7448 H         1 MOL         0.0428
     15 H7          0.3984    0.5392    4.0687 H         1 MOL         0.0428
     16 H8          1.0019    0.0124    5.6620 H         1 MOL         0.0428
@<TRIPOS>BOND
     1    1    2 ar
     2    1    3 ar
     3    2    4 ar
     4    3    5 ar
     5    4    6 ar
     6    5    6 ar
     7    6    8 1
     8    7    8 1
     9    1    9 1
    10    2   10 1
    11    3   11 1
    12    4   12 1
    13    5   13 1
    14    7   14 1
    15    7   15 1
    16    7   16 1
