@<TRIPOS>MOLECULE
diethyl_disulfide
   16    15     0     0     0
SMALL
USER_CHARGES

@<TRIPOS>ATOM
      1 C1         -0.2793    0.2909   -0.1360 C.3       1 MOL        -0.0913
      2 C2          4.0740   -2.4856    3.7239 C.3       1 MOL        -0.0913
      3 C3          0.8115   -0.6598    0.3193 C.3       1 MOL        -0.0117
      4 C4          2.7903   -1.8006    3.2950 C.3       1 MOL        -0.0117
      5 S1          0.2411   -1.6598    1.7146 S.3       1 MOL        -0.1811
      6 S2          1.8940   -2.8212    2.1001 S.3       1 MOL        -0.1811
      7 H1         -1.1715   -0.2505   -0.4685 H         1 MOL         0.0461
      8 H2         -0.5690    0.9830    0.6620 H         1 MOL         0.0461
      9 H3          0.0773    0.8902   -0.9804 H         1 MOL         0.0461
     10 H4          3.8741   -3.4487    4.2058 H         1 MOL         0.0461
     11 H5          4.7439   -2.6537    2.8739 H         1 MOL         0.0461
     12 H6          4.6072   -1.8589    4.4466 H         1 MOL         0.0461
     13 H7          1.6992   -0.0988    0.6272 H         1 MOL         0.0729
     14 H8          1.0980   -1.3275   -0.4988 H         1 MOL         0.0729
     15 H9          3.0123   -0.8327    2.8354 H         1 MOL         0.0729
     16 H10         2.1462   -1.6256    4.1619 H         1 MOL         0.0729
@<TRIPOS>BOND
     1    1    3 1
     2    2    4 1
     3    3    5 1
     4    4    6 1
     5    5    6 1
     6    1    7 1
     7    1    8 1
     8    1    9 1
     9    2   10 1
    10    2   11 1
    11    2   12 1
    12    3   13 1
    13    3   14 1
    14    4   15 1
    15    4   16 1
