@<TRIPOS>MOLECULE
35_dimethylpyridine
   17    17     0     0     0
SMALL
USER_CHARGES

@<TRIPOS>ATOM
      1 C1          1.6140   -0.1639    1.4246 C.ar      1 MOL        -0.0987
      2 C2         -0.4936   -1.2317    1.6986 C.ar      1 MOL         0.3870
      3 C3          1.1127   -1.5150    3.3168 C.ar      1 MOL         0.3870
      4 C4          0.3360   -0.4209    0.9405 C.ar      1 MOL        -0.1777
      5 C5          2.0175   -0.7175    2.6347 C.ar      1 MOL        -0.1777
      6 C6         -0.1257    0.1566   -0.3501 C.3       1 MOL        -0.0567
      7 C7          3.3777   -0.4616    3.1794 C.3       1 MOL        -0.0567
      8 N1         -0.1369   -1.7872    2.8784 N.ar      1 MOL        -0.6595
      9 H1          2.2950    0.4677    0.8589 H         1 MOL         0.1371
     10 H2         -1.5016   -1.4672    1.3716 H         1 MOL         0.0208
     11 H3          1.3713   -1.9738    4.2662 H         1 MOL         0.0208
     12 H4         -0.6329   -0.6070   -0.9550 H         1 MOL         0.0458
     13 H5         -0.8242    0.9902   -0.1910 H         1 MOL         0.0458
     14 H6          0.7143    0.5577   -0.9349 H         1 MOL         0.0458
     15 H7          3.4345    0.5431    3.6194 H         1 MOL         0.0458
     16 H8          3.6448   -1.1931    3.9551 H         1 MOL         0.0458
     17 H9          4.1457   -0.5390    2.3967 H         1 MOL         0.0458
@<TRIPOS>BOND
     1    1    4 ar
     2    1    5 ar
     3    2    4 ar
     4    2    8 ar
     5    3    5 ar
     6    3    8 ar
     7    4    6 1
     8    5    7 1
     9    1    9 1
    10    2   10 1
    11    3   11 1
    12    6   12 1
    13    6   13 1
    14    6   14 1
    15    7   15 1
    16    7   16 1
    17    7   17 1
