@<TRIPOS>MOLECULE
2_ethylpyridine
   17    17     0     0     0
SMALL
USER_CHARGES

@<TRIPOS>ATOM
      1 C1          1.2858   -0.0601    1.7333 C.ar      1 MOL        -0.0915
      2 C2          0.1842   -0.4388    0.9739 C.ar      1 MOL        -0.2521
      3 C3          1.4967   -0.6399    2.9793 C.ar      1 MOL        -0.2468
      4 C4         -0.6697   -1.3939    1.5014 C.ar      1 MOL         0.3981
      5 C5          0.5838   -1.5858    3.4172 C.ar      1 MOL         0.4111
      6 C6          1.6226   -3.4975    4.6634 C.3       1 MOL        -0.0872
      7 C7          0.7795   -2.2284    4.7501 C.3       1 MOL        -0.1295
      8 N1         -0.4976   -1.9792    2.7078 N.ar      1 MOL        -0.6662
      9 H1          1.9786    0.6854    1.3544 H         1 MOL         0.1364
     10 H2          0.0001   -0.0010   -0.0004 H         1 MOL         0.1423
     11 H3          2.3525   -0.3531    3.5811 H         1 MOL         0.1416
     12 H4         -1.5432   -1.7235    0.9483 H         1 MOL         0.0205
     13 H5          1.1488   -4.2407    4.0132 H         1 MOL         0.0380
     14 H6          1.7500   -3.9455    5.6538 H         1 MOL         0.0380
     15 H7          2.6171   -3.2818    4.2582 H         1 MOL         0.0380
     16 H8          1.2588   -1.5239    5.4481 H         1 MOL         0.0545
     17 H9         -0.1940   -2.4724    5.2041 H         1 MOL         0.0545
@<TRIPOS>BOND
     1    1    2 ar
     2    1    3 ar
     3    2    4 ar
     4    3    5 ar
     5    4    8 ar
     6    5    7 1
     7    5    8 ar
     8    6    7 1
     9    1    9 1
    10    2   10 1
    11    3   11 1
    12    4   12 1
    13    6   13 1
    14    6   14 1
    15    6   15 1
    16    7   16 1
    17    7   17 1
