@<TRIPOS>MOLECULE
benzaldehyde
   14    14     0     0     0
SMALL
USER_CHARGES

@<TRIPOS>ATOM
      1 C1          1.8846   -1.0376   -0.1090 C.ar      1 MOL        -0.0984
      2 C2          0.8176   -0.4410    0.5626 C.ar      1 MOL        -0.1452
      3 C3          2.9348   -1.6038    0.6137 C.ar      1 MOL        -0.1452
      4 C4          0.8008   -0.4105    1.9570 C.ar      1 MOL        -0.0781
      5 C5          2.9180   -1.5734    2.0082 C.ar      1 MOL        -0.0781
      6 C6          1.8509   -0.9767    2.6799 C.ar      1 MOL        -0.1974
      7 C7          1.8333   -0.9446    4.1336 C.2       1 MOL         0.5725
      8 O1          2.7308   -1.4281    4.8293 O.2       1 MOL        -0.5260
      9 H1          1.8975   -1.0613   -1.1948 H         1 MOL         0.1353
     10 H2          0.0001    0.0000   -0.0000 H         1 MOL         0.1374
     11 H3          3.7651   -2.0690    0.0906 H         1 MOL         0.1374
     12 H4         -0.0358    0.0574    2.4697 H         1 MOL         0.1441
     13 H5          3.7417   -2.0179    2.5610 H         1 MOL         0.1441
     14 H6          0.9622   -0.4579    4.6242 H         1 MOL        -0.0023
@<TRIPOS>BOND
     1    1    2 ar
     2    1    3 ar
     3    2    4 ar
     4    3    5 ar
     5    4    6 ar
     6    5    6 ar
     7    6    7 1
     8    7    8 2
     9    1    9 1
    10    2   10 1
    11    3   11 1
    12    4   12 1
    13    5   13 1
    14    7   14 1
