@<TRIPOS>MOLECULE
SAMPL4_048
   28    30     0     0     0
SMALL
USER_CHARGES

@<TRIPOS>ATOM
      1 C1          7.5910   -0.1820    3.9730 C.ar      1 MOL        -0.1195
      2 C2          7.9810   -1.3990    3.4190 C.ar      1 MOL        -0.1195
      3 C3          6.3510    0.3690    3.6500 C.ar      1 MOL        -0.0875
      4 C4          7.1320   -2.0720    2.5400 C.ar      1 MOL        -0.0875
      5 C5          1.1970   -0.5540    0.2920 C.ar      1 MOL        -0.1405
      6 C6          1.5870   -1.7720   -0.2610 C.ar      1 MOL        -0.1405
      7 C7          5.4960   -0.3020    2.7680 C.ar      1 MOL        -0.1271
      8 C8          5.8860   -1.5230    2.2130 C.ar      1 MOL        -0.1271
      9 C9          3.2920   -0.4310    1.4990 C.ar      1 MOL        -0.1756
     10 C10         3.6820   -1.6510    0.9440 C.ar      1 MOL        -0.1756
     11 C11         2.0460    0.1180    1.1720 C.ar      1 MOL         0.1731
     12 C12         2.8270   -2.3230    0.0620 C.ar      1 MOL         0.1731
     13 C13         4.1840    0.2880    2.4310 C.2       1 MOL         0.5988
     14 C14         4.9940   -2.2420    1.2810 C.2       1 MOL         0.5988
     15 N1          1.5820    1.3480    1.6920 N.pl3     1 MOL        -0.8327
     16 N2          3.1540   -3.5600   -0.5400 N.pl3     1 MOL        -0.8327
     17 O1          3.8760    1.3590    2.9380 O.2       1 MOL        -0.5541
     18 O2          5.3700   -3.3100    0.8150 O.2       1 MOL        -0.5541
     19 H1          8.2540    0.3400    4.6580 H         1 MOL         0.1390
     20 H2          8.9480   -1.8250    3.6720 H         1 MOL         0.1390
     21 H3          6.0730    1.3200    4.0970 H         1 MOL         0.1550
     22 H4          7.4610   -3.0200    2.1230 H         1 MOL         0.1550
     23 H5          0.2270   -0.1390    0.0290 H         1 MOL         0.1385
     24 H6          0.9130   -2.2830   -0.9450 H         1 MOL         0.1385
     25 H7          0.7040    1.7060    1.3800 H         1 MOL         0.4158
     26 H8          2.1830    1.8790    2.2870 H         1 MOL         0.4158
     27 H9          2.4790   -4.0080   -1.1230 H         1 MOL         0.4158
     28 H10         4.0120   -4.0060   -0.2940 H         1 MOL         0.4158
@<TRIPOS>BOND
     1    1    2 ar
     2    1    3 ar
     3    2    4 ar
     4    3    7 ar
     5    4    8 ar
     6    5    6 ar
     7    5   11 ar
     8    6   12 ar
     9    7    8 ar
    10    7   13 1
    11    8   14 1
    12    9   10 ar
    13    9   11 ar
    14    9   13 1
    15   10   12 ar
    16   10   14 1
    17   11   15 1
    18   12   16 1
    19   13   17 2
    20   14   18 2
    21    1   19 1
    22    2   20 1
    23    3   21 1
    24    4   22 1
    25    5   23 1
    26    6   24 1
    27   15   25 1
    28   15   26 1
    29   16   27 1
    30   16   28 1
