@<TRIPOS>MOLECULE
23_dimethylpentane
   23    22     0     0     0
SMALL
USER_CHARGES

@<TRIPOS>ATOM
      1 C1         -3.0280    2.9023    1.4721 C.3       1 MOL        -0.0891
      2 C2          0.7603    0.4898    2.3196 C.3       1 MOL        -0.0867
      3 C3          0.5925    0.7760   -0.1614 C.3       1 MOL        -0.0867
      4 C4         -0.3363    3.4247    2.5964 C.3       1 MOL        -0.0868
      5 C5         -1.8882    1.9003    1.3587 C.3       1 MOL        -0.0731
      6 C6          0.6708    1.5110    1.1823 C.3       1 MOL        -0.0609
      7 C7         -0.4824    2.5419    1.3488 C.3       1 MOL        -0.0574
      8 H1         -3.9879    2.3937    1.3351 H         1 MOL         0.0316
      9 H2         -3.0487    3.3796    2.4559 H         1 MOL         0.0316
     10 H3         -2.9457    3.6807    0.7070 H         1 MOL         0.0316
     11 H4          0.9046    0.9779    3.2876 H         1 MOL         0.0322
     12 H5          1.6146   -0.1790    2.1655 H         1 MOL         0.0322
     13 H6         -0.1377   -0.1328    2.3785 H         1 MOL         0.0322
     14 H7          1.5023    0.1889   -0.3288 H         1 MOL         0.0322
     15 H8          0.4991    1.4848   -0.9906 H         1 MOL         0.0322
     16 H9         -0.2546    0.0840   -0.2009 H         1 MOL         0.0322
     17 H10        -1.1334    4.1708    2.6590 H         1 MOL         0.0323
     18 H11        -0.3458    2.8313    3.5157 H         1 MOL         0.0323
     19 H12         0.6117    3.9738    2.5685 H         1 MOL         0.0323
     20 H13        -2.0255    1.3422    0.4234 H         1 MOL         0.0369
     21 H14        -1.9711    1.1645    2.1668 H         1 MOL         0.0369
     22 H15         1.6169    2.0664    1.1667 H         1 MOL         0.0411
     23 H16        -0.4445    3.2144    0.4800 H         1 MOL         0.0410
@<TRIPOS>BOND
     1    1    5 1
     2    2    6 1
     3    3    6 1
     4    4    7 1
     5    5    7 1
     6    6    7 1
     7    1    8 1
     8    1    9 1
     9    1   10 1
    10    2   11 1
    11    2   12 1
    12    2   13 1
    13    3   14 1
    14    3   15 1
    15    3   16 1
    16    4   17 1
    17    4   18 1
    18    4   19 1
    19    5   20 1
    20    5   21 1
    21    6   22 1
    22    7   23 1
