@<TRIPOS>MOLECULE
3_methoxyphenol
   17    17     0     0     0
SMALL
USER_CHARGES

@<TRIPOS>ATOM
      1 C1          0.8324   -0.3948    0.5751 C.ar      1 MOL        -0.0602
      2 C2          1.8991   -1.0135   -0.0768 C.ar      1 MOL        -0.2481
      3 C3          0.8349   -0.2829    1.9655 C.ar      1 MOL        -0.2146
      4 C4          2.9708   -1.4085    2.0522 C.ar      1 MOL        -0.2111
      5 C5          2.9683   -1.5204    0.6618 C.ar      1 MOL         0.1559
      6 C6          1.9042   -0.7896    2.7040 C.ar      1 MOL         0.1570
      7 C7          0.7837   -0.0377    4.6623 C.3       1 MOL         0.1167
      8 O1          4.0086   -2.1246    0.0256 O.3       1 MOL        -0.4983
      9 O2          1.9062   -0.6810    4.0606 O.3       1 MOL        -0.3266
     10 H1         -0.0010   -0.0011    0.0005 H         1 MOL         0.1340
     11 H2          1.8915   -1.0984   -1.1600 H         1 MOL         0.1345
     12 H3          0.0009    0.1990    2.4683 H         1 MOL         0.1446
     13 H4          3.8039   -1.8035    2.6280 H         1 MOL         0.1608
     14 H5         -0.0029   -0.7734    4.8472 H         1 MOL         0.0447
     15 H6          0.4139    0.7479    3.9986 H         1 MOL         0.0447
     16 H7          1.0947    0.4060    5.6110 H         1 MOL         0.0447
     17 H8          4.6597   -2.4135    0.6909 H         1 MOL         0.4211
@<TRIPOS>BOND
     1    1    2 ar
     2    1    3 ar
     3    2    5 ar
     4    3    6 ar
     5    4    5 ar
     6    4    6 ar
     7    5    8 1
     8    6    9 1
     9    7    9 1
    10    1   10 1
    11    2   11 1
    12    3   12 1
    13    4   13 1
    14    7   14 1
    15    7   15 1
    16    7   16 1
    17    8   17 1
