@<TRIPOS>MOLECULE
CUP08014_AM1BCC_v1_0
   24    25     0     0     0
SMALL
USER_CHARGES

@<TRIPOS>ATOM
      1 C1          1.6307   -1.0365   -0.8217 C.2       1 MOL        -0.1726
      2 C2          0.8153   -0.6633    0.1852 C.2       1 MOL        -0.1726
      3 C3          3.6384   -3.6696    1.1701 C.2       1 MOL         0.7049
      4 C4          2.5078   -2.7600    2.9564 C.2       1 MOL         0.7049
      5 C5          2.7253   -2.0727   -0.6743 C.3       1 MOL        -0.0289
      6 C6          0.9402   -1.1827    1.6022 C.3       1 MOL        -0.0289
      7 C7          2.5187   -2.8383    0.6168 C.3       1 MOL        -0.1390
      8 C8          2.2798   -1.8715    1.7675 C.3       1 MOL        -0.1390
      9 C9          3.2753   -6.2381    3.6094 C.3       1 MOL         0.2385
     10 N1          3.4075   -3.7240    2.5339 N.am      1 MOL        -0.4652
     11 O1          4.5121   -4.2129    0.5167 O.2       1 MOL        -0.5272
     12 O2          2.0437   -2.5825    4.0701 O.2       1 MOL        -0.5272
     13 S1          4.2772   -4.7118    3.5964 S.3       1 MOL         0.0949
     14 Cl1         4.0236   -7.4067    4.7458 Cl        1 MOL        -0.0950
     15 Cl2         1.6015   -5.9265    4.1512 Cl        1 MOL        -0.0950
     16 Cl3         3.2166   -6.9954    1.9913 Cl        1 MOL        -0.0950
     17 H1          1.5008   -0.5948   -1.8079 H         1 MOL         0.1349
     18 H2          0.0292    0.0652   -0.0043 H         1 MOL         0.1349
     19 H3          2.6933   -2.7650   -1.5231 H         1 MOL         0.0694
     20 H4          3.7035   -1.5791   -0.6983 H         1 MOL         0.0694
     21 H5          0.8644   -0.3478    2.3080 H         1 MOL         0.0694
     22 H6          0.1085   -1.8631    1.8182 H         1 MOL         0.0694
     23 H7          1.6623   -3.5211    0.4982 H         1 MOL         0.0975
     24 H8          3.0750   -1.1099    1.8029 H         1 MOL         0.0975
@<TRIPOS>BOND
     1    1    2 2
     2    1    5 1
     3    2    6 1
     4    3    7 1
     5    3   10 am
     6    3   11 2
     7    4    8 1
     8    4   10 am
     9    4   12 2
    10    5    7 1
    11    6    8 1
    12    7    8 1
    13    9   13 1
    14    9   14 1
    15    9   15 1
    16    9   16 1
    17   10   13 1
    18    1   17 1
    19    2   18 1
    20    5   19 1
    21    5   20 1
    22    6   21 1
    23    6   22 1
    24    7   23 1
    25    8   24 1
