@<TRIPOS>MOLECULE
n_hexyl_acetate
   26    25     0     0     0
SMALL
USER_CHARGES

@<TRIPOS>ATOM
      1 C1         -4.4671   -0.8101    6.9542 C.2       1 MOL         0.6303
      2 C2         -5.6984    0.0340    7.0863 C.3       1 MOL        -0.1459
      3 C3          1.7833   -1.3584    0.9178 C.3       1 MOL        -0.0899
      4 C4          1.1442   -1.8866    2.1933 C.3       1 MOL        -0.0776
      5 C5         -0.1230   -1.1065    2.5457 C.3       1 MOL        -0.0761
      6 C6         -0.7660   -1.5523    3.8620 C.3       1 MOL        -0.0753
      7 C7         -2.0456   -0.7898    4.2020 C.3       1 MOL        -0.0945
      8 C8         -2.6297   -1.2442    5.5331 C.3       1 MOL         0.1397
      9 O1         -4.1114   -1.6374    7.7825 O.2       1 MOL        -0.5437
     10 O2         -3.8211   -0.5123    5.7858 O.3       1 MOL        -0.4459
     11 H1         -6.3818   -0.1750    6.2596 H         1 MOL         0.0743
     12 H2         -5.4232    1.0916    7.1010 H         1 MOL         0.0743
     13 H3         -6.2039   -0.2067    8.0260 H         1 MOL         0.0743
     14 H4          2.6848   -1.9319    0.6802 H         1 MOL         0.0318
     15 H5          1.0947   -1.4412    0.0708 H         1 MOL         0.0318
     16 H6          2.0688   -0.3074    1.0277 H         1 MOL         0.0318
     17 H7          1.8672   -1.8141    3.0137 H         1 MOL         0.0381
     18 H8          0.9125   -2.9479    2.0545 H         1 MOL         0.0381
     19 H9         -0.8521   -1.1958    1.7312 H         1 MOL         0.0385
     20 H10         0.1252   -0.0410    2.6309 H         1 MOL         0.0385
     21 H11        -0.0356   -1.4015    4.6668 H         1 MOL         0.0431
     22 H12        -0.9747   -2.6284    3.8233 H         1 MOL         0.0431
     23 H13        -2.8003   -0.9283    3.4193 H         1 MOL         0.0523
     24 H14        -1.8465    0.2883    4.2424 H         1 MOL         0.0523
     25 H15        -2.8747   -2.3107    5.5080 H         1 MOL         0.0583
     26 H16        -1.9274   -1.0587    6.3521 H         1 MOL         0.0583
@<TRIPOS>BOND
     1    1    2 1
     2    1    9 2
     3    1   10 1
     4    3    4 1
     5    4    5 1
     6    5    6 1
     7    6    7 1
     8    7    8 1
     9    8   10 1
    10    2   11 1
    11    2   12 1
    12    2   13 1
    13    3   14 1
    14    3   15 1
    15    3   16 1
    16    4   17 1
    17    4   18 1
    18    5   19 1
    19    5   20 1
    20    6   21 1
    21    6   22 1
    22    7   23 1
    23    7   24 1
    24    8   25 1
    25    8   26 1
