@<TRIPOS>MOLECULE
SAMPL4_005
   20    20     0     0     0
SMALL
USER_CHARGES

@<TRIPOS>ATOM
      1 C1          1.8850   -1.0360   -0.1120 C.ar      1 MOL        -0.1290
      2 C2          0.8070   -0.4630    0.5610 C.ar      1 MOL        -0.1290
      3 C3          2.9210   -1.6310    0.6080 C.ar      1 MOL        -0.1790
      4 C4          0.7640   -0.4840    1.9550 C.ar      1 MOL        -0.1790
      5 C5          2.8780   -1.6520    2.0020 C.ar      1 MOL         0.1021
      6 C6          1.8000   -1.0790    2.6760 C.ar      1 MOL         0.1021
      7 C7          4.9610   -2.7970    1.9300 C.3       1 MOL         0.1107
      8 C8          0.6100   -0.4840    4.6470 C.3       1 MOL         0.1107
      9 O1          3.8970   -2.2350    2.6950 O.3       1 MOL        -0.3049
     10 O2          1.7470   -1.0920    4.0370 O.3       1 MOL        -0.3049
     11 H1          1.9180   -1.0200   -1.1980 H         1 MOL         0.1330
     12 H2          0.0000   -0.0000    0.0000 H         1 MOL         0.1330
     13 H3          3.7580   -2.0760    0.0770 H         1 MOL         0.1380
     14 H4         -0.0790   -0.0340    2.4730 H         1 MOL         0.1380
     15 H5          5.7060   -3.2290    2.6040 H         1 MOL         0.0430
     16 H6          5.4190   -2.0200    1.3140 H         1 MOL         0.0430
     17 H7          4.5590   -3.5820    1.2850 H         1 MOL         0.0430
     18 H8          0.6930   -0.5640    5.7340 H         1 MOL         0.0430
     19 H9         -0.2990   -0.9830    4.3030 H         1 MOL         0.0430
     20 H10         0.5750    0.5700    4.3630 H         1 MOL         0.0430
@<TRIPOS>BOND
     1    1    2 ar
     2    1    3 ar
     3    2    4 ar
     4    3    5 ar
     5    4    6 ar
     6    5    6 ar
     7    5    9 1
     8    6   10 1
     9    7    9 1
    10    8   10 1
    11    1   11 1
    12    2   12 1
    13    3   13 1
    14    4   14 1
    15    7   15 1
    16    7   16 1
    17    7   17 1
    18    8   18 1
    19    8   19 1
    20    8   20 1
