@<TRIPOS>MOLECULE
CUP08043_AM1BCC_v1_0
   32    32     0     0     0
SMALL
USER_CHARGES

@<TRIPOS>ATOM
      1 C1         -3.1317   -1.4303   -6.1123 C.ar      1 MOL        -0.0483
      2 C2         -3.4808    0.9621   -5.8670 C.ar      1 MOL        -0.0483
      3 C3         -2.1975   -1.4002   -5.0705 C.ar      1 MOL        -0.1471
      4 C4         -2.5468    0.9797   -4.8282 C.ar      1 MOL        -0.1471
      5 C5         -3.7716   -0.2482   -6.5069 C.ar      1 MOL        -0.1795
      6 C6         -1.9092   -0.1979   -4.4259 C.ar      1 MOL         0.1751
      7 C7          1.5852    1.3178   -0.3372 C.3       1 MOL        -0.1170
      8 C8          2.5003   -3.1630   -4.5825 C.3       1 MOL        -0.1170
      9 C9          0.4093    0.4608   -0.7591 C.3       1 MOL         0.1661
     10 C10         1.6212   -2.8743   -3.3829 C.3       1 MOL         0.1661
     11 N1         -4.7499   -0.2780   -7.6014 N.pl3     1 MOL         0.3155
     12 O1         -4.9780   -1.3696   -8.1415 O.3       1 MOL        -0.2032
     13 O2         -5.2883    0.7912   -7.9219 O.2       1 MOL        -0.2032
     14 O3         -1.0138   -0.0604   -3.4037 O.3       1 MOL        -0.4643
     15 O4          0.8435   -0.4333   -1.7704 O.3       1 MOL        -0.5330
     16 O5          0.6410   -1.9230   -3.7625 O.3       1 MOL        -0.5330
     17 P1         -0.2763   -1.2564   -2.6053 P.3       1 MOL         1.1835
     18 S1         -1.3902   -2.4610   -1.5689 S.2       1 MOL        -0.5361
     19 H1         -3.3452   -2.3787   -6.6024 H         1 MOL         0.1788
     20 H2         -3.9657    1.8907   -6.1611 H         1 MOL         0.1788
     21 H3         -1.7122   -2.3321   -4.7952 H         1 MOL         0.1625
     22 H4         -2.3172    1.9191   -4.3293 H         1 MOL         0.1625
     23 H5          2.4038    0.6928    0.0348 H         1 MOL         0.0537
     24 H6          1.9770    1.8814   -1.1904 H         1 MOL         0.0537
     25 H7          1.2939    2.0218    0.4473 H         1 MOL         0.0537
     26 H8          1.9016   -3.5430   -5.4171 H         1 MOL         0.0537
     27 H9          2.9885   -2.2472   -4.9320 H         1 MOL         0.0537
     28 H10         3.2690   -3.9002   -4.3347 H         1 MOL         0.0537
     29 H11        -0.3977    1.0953   -1.1380 H         1 MOL         0.0664
     30 H12         0.0398   -0.1116    0.0969 H         1 MOL         0.0664
     31 H13         2.2283   -2.4830   -2.5609 H         1 MOL         0.0664
     32 H14         1.1272   -3.7933   -3.0542 H         1 MOL         0.0664
@<TRIPOS>BOND
     1    1    3 ar
     2    1    5 ar
     3    2    4 ar
     4    2    5 ar
     5    3    6 ar
     6    4    6 ar
     7    5   11 1
     8    6   14 1
     9    7    9 1
    10    8   10 1
    11    9   15 1
    12   10   16 1
    13   11   12 1
    14   11   13 2
    15   14   17 1
    16   15   17 1
    17   16   17 1
    18   17   18 2
    19    1   19 1
    20    2   20 1
    21    3   21 1
    22    4   22 1
    23    7   23 1
    24    7   24 1
    25    7   25 1
    26    8   26 1
    27    8   27 1
    28    8   28 1
    29    9   29 1
    30    9   30 1
    31   10   31 1
    32   10   32 1
