@<TRIPOS>MOLECULE
n_propyl_acetate
   17    16     0     0     0
SMALL
USER_CHARGES

@<TRIPOS>ATOM
      1 C1          2.6357   -1.8329    4.7977 C.2       1 MOL         0.6305
      2 C2          3.9233   -1.4542    5.4646 C.3       1 MOL        -0.1500
      3 C3         -0.0095   -0.6551    0.8768 C.3       1 MOL        -0.0896
      4 C4          1.2444   -0.4434    1.7060 C.3       1 MOL        -0.0948
      5 C5          1.2749   -1.3494    2.9273 C.3       1 MOL         0.1386
      6 O1          1.8678   -2.6847    5.2241 O.2       1 MOL        -0.5375
      7 O2          2.4629   -1.0899    3.6622 O.3       1 MOL        -0.4439
      8 H1          3.8964   -0.4001    5.7515 H         1 MOL         0.0741
      9 H2          4.7614   -1.6491    4.7908 H         1 MOL         0.0741
     10 H3          4.0553   -2.0579    6.3672 H         1 MOL         0.0741
     11 H4         -0.9084   -0.4406    1.4638 H         1 MOL         0.0362
     12 H5         -0.0059    0.0088    0.0067 H         1 MOL         0.0362
     13 H6         -0.0721   -1.6868    0.5167 H         1 MOL         0.0362
     14 H7          1.3083    0.6043    2.0234 H         1 MOL         0.0523
     15 H8          2.1333   -0.6260    1.0902 H         1 MOL         0.0523
     16 H9          0.4147   -1.1588    3.5770 H         1 MOL         0.0555
     17 H10         1.2712   -2.4035    2.6320 H         1 MOL         0.0555
@<TRIPOS>BOND
     1    1    2 1
     2    1    6 2
     3    1    7 1
     4    3    4 1
     5    4    5 1
     6    5    7 1
     7    2    8 1
     8    2    9 1
     9    2   10 1
    10    3   11 1
    11    3   12 1
    12    3   13 1
    13    4   14 1
    14    4   15 1
    15    5   16 1
    16    5   17 1
