@<TRIPOS>MOLECULE
CUP08001_AM1BCC_v1_0
   14    13     0     0     0
SMALL
USER_CHARGES

@<TRIPOS>ATOM
      1 C1         -0.8790    0.4226    0.4536 C.3       1 MOL         0.1315
      2 C2         -2.1580   -0.2058   -0.0925 C.3       1 MOL         0.1315
      3 N1          0.2716    0.8359    2.4765 N.pl3     1 MOL         0.3828
      4 N2         -3.2246   -2.2947   -0.3843 N.pl3     1 MOL         0.3828
      5 O1          0.2743    0.7167    3.6994 O.3       1 MOL        -0.1656
      6 O2          1.1004    1.3563    1.7284 O.2       1 MOL        -0.1656
      7 O3         -3.1605   -3.5115   -0.2260 O.3       1 MOL        -0.1656
      8 O4         -4.1134   -1.6061   -0.8872 O.2       1 MOL        -0.1656
      9 O5         -0.8844    0.2840    1.8743 O.3       1 MOL        -0.3574
     10 O6         -2.0752   -1.6189    0.0911 O.3       1 MOL        -0.3574
     11 H1         -0.8635    1.4850    0.1828 H         1 MOL         0.0872
     12 H2         -0.0094   -0.0962    0.0317 H         1 MOL         0.0872
     13 H3         -2.2381    0.0274   -1.1609 H         1 MOL         0.0872
     14 H4         -3.0216    0.1912    0.4550 H         1 MOL         0.0872
@<TRIPOS>BOND
     1    1    2 1
     2    1    9 1
     3    2   10 1
     4    3    5 1
     5    3    6 2
     6    3    9 1
     7    4    7 1
     8    4    8 2
     9    4   10 1
    10    1   11 1
    11    1   12 1
    12    2   13 1
    13    2   14 1
