@<TRIPOS>MOLECULE
SAMPL4_052
   23    24     0     0     0
SMALL
USER_CHARGES

@<TRIPOS>ATOM
      1 C1          1.8790   -1.0380   -0.1130 C.ar      1 MOL        -0.1500
      2 C2          4.4330   -3.6140    6.0240 C.ar      1 MOL        -0.1500
      3 C3          1.9160   -2.2550    0.5680 C.ar      1 MOL        -0.1085
      4 C4          1.8020    0.1590    0.6010 C.ar      1 MOL        -0.1085
      5 C5          4.8770   -2.8200    4.9660 C.ar      1 MOL        -0.1085
      6 C6          3.0950   -3.5670    6.4170 C.ar      1 MOL        -0.1085
      7 C7          1.8770   -2.2750    1.9620 C.ar      1 MOL        -0.1575
      8 C8          1.7620    0.1380    1.9950 C.ar      1 MOL        -0.1575
      9 C9          3.9840   -1.9800    4.3010 C.ar      1 MOL        -0.1575
     10 C10         2.2020   -2.7270    5.7520 C.ar      1 MOL        -0.1575
     11 C11         1.8000   -1.0790    2.6760 C.ar      1 MOL         0.1051
     12 C12         2.6460   -1.9330    4.6940 C.ar      1 MOL         0.1051
     13 O1          1.7590   -1.0980    4.0360 O.3       1 MOL        -0.2512
     14 H1          1.9110   -1.0220   -1.1980 H         1 MOL         0.1340
     15 H2          5.1280   -4.2690    6.5410 H         1 MOL         0.1340
     16 H3          1.9760   -3.1860    0.0130 H         1 MOL         0.1350
     17 H4          1.7730    1.1060    0.0700 H         1 MOL         0.1350
     18 H5          5.9190   -2.8560    4.6600 H         1 MOL         0.1350
     19 H6          2.7500   -4.1860    7.2400 H         1 MOL         0.1350
     20 H7          1.9040   -3.2260    2.4870 H         1 MOL         0.1490
     21 H8          1.7010    1.0730    2.5450 H         1 MOL         0.1490
     22 H9          4.3370   -1.3630    3.4790 H         1 MOL         0.1490
     23 H10         1.1610   -2.6930    6.0630 H         1 MOL         0.1490
@<TRIPOS>BOND
     1    1    3 ar
     2    1    4 ar
     3    2    5 ar
     4    2    6 ar
     5    3    7 ar
     6    4    8 ar
     7    5    9 ar
     8    6   10 ar
     9    7   11 ar
    10    8   11 ar
    11    9   12 ar
    12   10   12 ar
    13   11   13 1
    14   12   13 1
    15    1   14 1
    16    2   15 1
    17    3   16 1
    18    4   17 1
    19    5   18 1
    20    6   19 1
    21    7   20 1
    22    8   21 1
    23    9   22 1
    24   10   23 1
