@<TRIPOS>MOLECULE
NN_dimethylformamide
   12    11     0     0     0
SMALL
USER_CHARGES

@<TRIPOS>ATOM
      1 C1          2.8181   -1.4424    0.2525 C.2       1 MOL         0.6579
      2 C2          0.9276   -0.0771   -0.5743 C.3       1 MOL         0.0831
      3 C3          0.7832   -2.5563   -0.6072 C.3       1 MOL         0.0831
      4 N1          1.5475   -1.3611   -0.2934 N.am      1 MOL        -0.4957
      5 O1          3.5591   -0.5150    0.5594 O.2       1 MOL        -0.6017
      6 H1          3.1373   -2.4870    0.4011 H         1 MOL         0.0286
      7 H2         -0.1338   -0.1382   -0.3256 H         1 MOL         0.0408
      8 H3          1.0534    0.1501   -1.6351 H         1 MOL         0.0408
      9 H4          1.4135    0.6893    0.0333 H         1 MOL         0.0408
     10 H5         -0.0500   -2.6340    0.0942 H         1 MOL         0.0408
     11 H6          1.4365   -3.4266   -0.5140 H         1 MOL         0.0408
     12 H7          0.4087   -2.4767   -1.6299 H         1 MOL         0.0408
@<TRIPOS>BOND
     1    1    4 am
     2    1    5 2
     3    2    4 1
     4    3    4 1
     5    1    6 1
     6    2    7 1
     7    2    8 1
     8    2    9 1
     9    3   10 1
    10    3   11 1
    11    3   12 1
