@<TRIPOS>MOLECULE
N_methyl_N__222_trifluoroethyl__aniline
   23    23     0     0     0
SMALL
USER_CHARGES

@<TRIPOS>ATOM
      1 C1          1.8840   -1.0358   -0.1090 C.ar      1 MOL        -0.1691
      2 C2          2.8267   -0.2762    0.5836 C.ar      1 MOL        -0.0911
      3 C3          0.9246   -1.7659    0.5927 C.ar      1 MOL        -0.0911
      4 C4          2.8102   -0.2468    1.9780 C.ar      1 MOL        -0.1888
      5 C5          0.9080   -1.7364    1.9872 C.ar      1 MOL        -0.1888
      6 C6          1.8509   -0.9767    2.6799 C.ar      1 MOL         0.1850
      7 C7          0.8409   -1.7015    4.8281 C.3       1 MOL         0.2120
      8 C8          2.8173   -0.1711    4.8194 C.3       1 MOL         0.2140
      9 C9          2.3190    1.2389    5.0223 C.3       1 MOL         0.5952
     10 N1          1.8337   -0.9465    4.0899 N.pl3     1 MOL        -0.6989
     11 F1          3.2372    1.9731    5.6894 F         1 MOL        -0.2458
     12 F2          2.0830    1.8536    3.8438 F         1 MOL        -0.2458
     13 F3          1.1776    1.2606    5.7429 F         1 MOL        -0.2458
     14 H1          1.8973   -1.0587   -1.1948 H         1 MOL         0.1336
     15 H2          3.5735    0.2921    0.0367 H         1 MOL         0.1317
     16 H3          0.1905   -2.3572    0.0538 H         1 MOL         0.1317
     17 H4          3.5489    0.3491    2.5080 H         1 MOL         0.1332
     18 H5          0.1561   -2.3092    2.5239 H         1 MOL         0.1332
     19 H6         -0.1265   -1.1946    4.7833 H         1 MOL         0.0429
     20 H7          1.1401   -1.7965    5.8755 H         1 MOL         0.0429
     21 H8          0.7336   -2.7027    4.4021 H         1 MOL         0.0429
     22 H9          3.0086   -0.6451    5.7870 H         1 MOL         0.0833
     23 H10         3.7582   -0.1605    4.2608 H         1 MOL         0.0833
@<TRIPOS>BOND
     1    1    2 ar
     2    1    3 ar
     3    2    4 ar
     4    3    5 ar
     5    4    6 ar
     6    5    6 ar
     7    6   10 1
     8    7   10 1
     9    8    9 1
    10    8   10 1
    11    9   11 1
    12    9   12 1
    13    9   13 1
    14    1   14 1
    15    2   15 1
    16    3   16 1
    17    4   17 1
    18    5   18 1
    19    7   19 1
    20    7   20 1
    21    7   21 1
    22    8   22 1
    23    8   23 1
