@<TRIPOS>MOLECULE
SAMPL4_001
   26    25     0     0     0
SMALL
USER_CHARGES

@<TRIPOS>ATOM
      1 C1          0.2790   -0.8740    1.4860 C.3       1 MOL         0.1159
      2 C2          1.2290   -1.5520   -3.1280 C.3       1 MOL         0.1159
      3 C3          1.1630   -1.7450    0.5960 C.3       1 MOL         0.0796
      4 C4          0.1590   -0.9170   -2.2410 C.3       1 MOL         0.0796
      5 C5          0.3820   -2.6670   -0.3630 C.3       1 MOL         0.1366
      6 C6         -0.5630   -1.9130   -1.3130 C.3       1 MOL         0.1366
      7 O1          1.1140   -0.0980    2.3410 O.3       1 MOL        -0.6048
      8 O2          1.8050   -0.5580   -3.9730 O.3       1 MOL        -0.6048
      9 O3          1.9500   -2.5690    1.4650 O.3       1 MOL        -0.6118
     10 O4         -0.8140   -0.3300   -3.1140 O.3       1 MOL        -0.6118
     11 O5         -0.3830   -3.6070    0.3910 O.3       1 MOL        -0.5868
     12 O6         -1.2830   -2.8640   -2.0960 O.3       1 MOL        -0.5868
     13 H1         -0.3750   -1.4760    2.1210 H         1 MOL         0.0527
     14 H2         -0.3240   -0.1790    0.8930 H         1 MOL         0.0527
     15 H3          0.8020   -2.3180   -3.7830 H         1 MOL         0.0527
     16 H4          2.0390   -1.9980   -2.5460 H         1 MOL         0.0527
     17 H5          1.8700   -1.1170    0.0430 H         1 MOL         0.0577
     18 H6          0.5920   -0.0920   -1.6640 H         1 MOL         0.0577
     19 H7          1.1120   -3.2400   -0.9460 H         1 MOL         0.0587
     20 H8         -1.3020   -1.3530   -0.7280 H         1 MOL         0.0587
     21 H9          0.5230    0.4410    2.8890 H         1 MOL         0.4135
     22 H10         2.4730   -1.0080   -4.5130 H         1 MOL         0.4135
     23 H11         2.4680   -1.9620    2.0130 H         1 MOL         0.4190
     24 H12        -1.4840    0.0680   -2.5400 H         1 MOL         0.4190
     25 H13         0.2510   -4.1160    0.9200 H         1 MOL         0.4175
     26 H14        -1.9210   -2.3590   -2.6230 H         1 MOL         0.4175
@<TRIPOS>BOND
     1    1    3 1
     2    1    7 1
     3    2    4 1
     4    2    8 1
     5    3    5 1
     6    3    9 1
     7    4    6 1
     8    4   10 1
     9    5    6 1
    10    5   11 1
    11    6   12 1
    12    1   13 1
    13    1   14 1
    14    2   15 1
    15    2   16 1
    16    3   17 1
    17    4   18 1
    18    5   19 1
    19    6   20 1
    20    7   21 1
    21    8   22 1
    22    9   23 1
    23   10   24 1
    24   11   25 1
    25   12   26 1
