@<TRIPOS>MOLECULE
CUP08053_AM1BCC_v1_0
   35    35     0     0     0
SMALL
USER_CHARGES

@<TRIPOS>ATOM
      1 C1          2.7758   -3.6124    4.1796 C.ar      1 MOL         0.9288
      2 C2          1.4485   -1.7915    4.1042 C.ar      1 MOL         0.9377
      3 C3          1.1923   -3.3146    5.7214 C.ar      1 MOL         0.7974
      4 C4          5.0740   -5.3442    1.8494 C.3       1 MOL        -0.1094
      5 C5          0.3951    1.0382    1.9005 C.3       1 MOL        -0.1029
      6 C6          2.6295   -0.0412    1.7475 C.3       1 MOL        -0.1029
      7 C7          0.5281   -1.3654    1.2480 C.3       1 MOL        -0.1029
      8 C8         -0.1604   -2.3466    7.9012 C.3       1 MOL        -0.0634
      9 C9          3.9696   -4.3789    2.2493 C.3       1 MOL         0.2158
     10 C10         1.1623   -0.2815    2.1317 C.3       1 MOL         0.2443
     11 N1          2.4431   -2.4821    3.5708 N.ar      1 MOL        -0.8522
     12 N2          2.1707   -4.0803    5.2559 N.ar      1 MOL        -0.8054
     13 N3          0.7832   -2.1716    5.1823 N.ar      1 MOL        -0.8377
     14 N4          3.8151   -4.3963    3.6918 N.pl3     1 MOL        -0.8462
     15 N5          1.0255   -0.5968    3.5561 N.pl3     1 MOL        -0.8355
     16 S1          0.3433   -3.9194    7.1636 S.3       1 MOL        -0.1968
     17 H1          6.0248   -5.0687    2.3178 H         1 MOL         0.0441
     18 H2          4.8329   -6.3672    2.1577 H         1 MOL         0.0441
     19 H3          5.2117   -5.3376    0.7638 H         1 MOL         0.0441
     20 H4         -0.6654    0.9311    2.1578 H         1 MOL         0.0444
     21 H5          0.8005    1.8454    2.5221 H         1 MOL         0.0444
     22 H6          0.4539    1.3575    0.8539 H         1 MOL         0.0444
     23 H7          3.2222   -0.9599    1.7633 H         1 MOL         0.0444
     24 H8          3.1062    0.6704    2.4315 H         1 MOL         0.0444
     25 H9          2.7079    0.3658    0.7326 H         1 MOL         0.0444
     26 H10         1.0707   -2.3146    1.3059 H         1 MOL         0.0444
     27 H11        -0.5087   -1.5617    1.5450 H         1 MOL         0.0444
     28 H12         0.5237   -1.0612    0.1950 H         1 MOL         0.0444
     29 H13        -0.6285   -2.5416    8.8701 H         1 MOL         0.0735
     30 H14        -0.8896   -1.8340    7.2679 H         1 MOL         0.0735
     31 H15         0.7060   -1.6987    8.0624 H         1 MOL         0.0735
     32 H16         3.0368   -4.6775    1.7559 H         1 MOL         0.0514
     33 H17         4.2400   -3.3758    1.8989 H         1 MOL         0.0514
     34 H18         3.7002   -5.3132    4.1117 H         1 MOL         0.4420
     35 H19         0.1159   -0.3999    3.9600 H         1 MOL         0.4341
@<TRIPOS>BOND
     1    1   11 ar
     2    1   12 ar
     3    1   14 1
     4    2   11 ar
     5    2   13 ar
     6    2   15 1
     7    3   12 ar
     8    3   13 ar
     9    3   16 1
    10    4    9 1
    11    5   10 1
    12    6   10 1
    13    7   10 1
    14    8   16 1
    15    9   14 1
    16   10   15 1
    17    4   17 1
    18    4   18 1
    19    4   19 1
    20    5   20 1
    21    5   21 1
    22    5   22 1
    23    6   23 1
    24    6   24 1
    25    6   25 1
    26    7   26 1
    27    7   27 1
    28    7   28 1
    29    8   29 1
    30    8   30 1
    31    8   31 1
    32    9   32 1
    33    9   33 1
    34   14   34 1
    35   15   35 1
