@<TRIPOS>MOLECULE
piperidine
   17    17     0     0     0
SMALL
USER_CHARGES

@<TRIPOS>ATOM
      1 C1          0.8727    0.0537    0.6622 C.3       1 MOL        -0.0729
      2 C2          0.9309   -1.2002    1.5290 C.3       1 MOL        -0.0881
      3 C3          0.7738    1.3024    1.5330 C.3       1 MOL        -0.0881
      4 C4         -0.2145   -1.2292    2.5390 C.3       1 MOL         0.1557
      5 C5         -0.3664    1.1848    2.5425 C.3       1 MOL         0.1557
      6 N1         -0.2335   -0.0198    3.3628 N.3       1 MOL        -0.8034
      7 H1          1.7601    0.1103    0.0222 H         1 MOL         0.0395
      8 H2         -0.0002   -0.0001    0.0003 H         1 MOL         0.0395
      9 H3          0.8876   -2.0915    0.8931 H         1 MOL         0.0426
     10 H4          1.8907   -1.2319    2.0603 H         1 MOL         0.0426
     11 H5          1.7219    1.4520    2.0648 H         1 MOL         0.0426
     12 H6          0.6204    2.1836    0.8999 H         1 MOL         0.0426
     13 H7         -1.1744   -1.3462    2.0209 H         1 MOL         0.0343
     14 H8         -0.0949   -2.1004    3.1921 H         1 MOL         0.0343
     15 H9         -0.3570    2.0624    3.1979 H         1 MOL         0.0343
     16 H10        -1.3332    1.1823    2.0244 H         1 MOL         0.0343
     17 H11        -1.0148   -0.0706    4.0158 H         1 MOL         0.3545
@<TRIPOS>BOND
     1    1    2 1
     2    1    3 1
     3    2    4 1
     4    3    5 1
     5    4    6 1
     6    5    6 1
     7    1    7 1
     8    1    8 1
     9    2    9 1
    10    2   10 1
    11    3   11 1
    12    3   12 1
    13    4   13 1
    14    4   14 1
    15    5   15 1
    16    5   16 1
    17    6   17 1
