@<TRIPOS>MOLECULE
acetic_acid
    8     7     0     0     0
SMALL
USER_CHARGES

@<TRIPOS>ATOM
      1 C1         -1.6530    0.6105    1.1990 C.2       1 MOL         0.6339
      2 C2         -1.0284    0.3448   -0.1340 C.3       1 MOL        -0.1451
      3 O1         -2.6517    0.0533    1.6296 O.2       1 MOL        -0.5505
      4 O2         -0.9598    1.5616    1.8714 O.3       1 MOL        -0.6133
      5 H1         -1.0540    1.2519   -0.7428 H         1 MOL         0.0767
      6 H2          0.0000    0.0000    0.0000 H         1 MOL         0.0767
      7 H3         -1.5932   -0.4376   -0.6489 H         1 MOL         0.0767
      8 H4         -1.3554    1.7518    2.7487 H         1 MOL         0.4450
@<TRIPOS>BOND
     1    1    2 1
     2    1    3 2
     3    1    4 1
     4    2    5 1
     5    2    6 1
     6    2    7 1
     7    4    8 1
