@<TRIPOS>MOLECULE
CUP08057_AM1BCC_v1_0
   34    33     0     0     0
SMALL
USER_CHARGES

@<TRIPOS>ATOM
      1 C1         -0.8490   -1.5246    2.4482 C.2       1 MOL         0.6835
      2 C2          0.6523   -0.0081   -1.7773 C.3       1 MOL        -0.0900
      3 C3         -3.6636    2.0713    2.8721 C.3       1 MOL        -0.0900
      4 C4          0.7611   -6.2460    4.0639 C.3       1 MOL        -0.0881
      5 C5          0.4717    0.0087   -0.2683 C.3       1 MOL        -0.0996
      6 C6         -3.1413    0.7843    2.2550 C.3       1 MOL        -0.0996
      7 C7          0.5905   -5.3656    2.8342 C.3       1 MOL        -0.0722
      8 C8         -0.9268   -0.4628    0.1321 C.3       1 MOL         0.0931
      9 C9         -1.6141    0.7783    2.1837 C.3       1 MOL         0.0931
     10 C10         0.0051   -4.0061    3.2086 C.3       1 MOL         0.0003
     11 N1         -1.1064   -0.4575    1.5890 N.am      1 MOL        -0.4624
     12 O1         -1.0596   -1.4784    3.6556 O.2       1 MOL        -0.6050
     13 S1         -0.1832   -2.9820    1.7200 S.3       1 MOL        -0.2700
     14 H1          0.5218   -1.0190   -2.1764 H         1 MOL         0.0351
     15 H2         -0.0719    0.6513   -2.2662 H         1 MOL         0.0351
     16 H3          1.6572    0.3346   -2.0430 H         1 MOL         0.0351
     17 H4         -3.2856    2.1992    3.8915 H         1 MOL         0.0351
     18 H5         -3.3596    2.9409    2.2808 H         1 MOL         0.0351
     19 H6         -4.7571    2.0549    2.9149 H         1 MOL         0.0351
     20 H7          1.4366   -5.7809    4.7889 H         1 MOL         0.0368
     21 H8         -0.2010   -6.4245    4.5549 H         1 MOL         0.0368
     22 H9          1.1827   -7.2153    3.7803 H         1 MOL         0.0368
     23 H10         0.6447    1.0253    0.1038 H         1 MOL         0.0480
     24 H11         1.2359   -0.6263    0.1936 H         1 MOL         0.0480
     25 H12        -3.5648    0.6674    1.2506 H         1 MOL         0.0480
     26 H13        -3.4933   -0.0695    2.8460 H         1 MOL         0.0480
     27 H14        -0.0645   -5.8809    2.1213 H         1 MOL         0.0512
     28 H15         1.5682   -5.2413    2.3527 H         1 MOL         0.0512
     29 H16        -1.6871    0.1931   -0.3092 H         1 MOL         0.0583
     30 H17        -1.1222   -1.4617   -0.2691 H         1 MOL         0.0583
     31 H18        -1.2495    1.6285    1.5955 H         1 MOL         0.0583
     32 H19        -1.1992    0.8920    3.1924 H         1 MOL         0.0583
     33 H20        -0.9737   -4.1383    3.6821 H         1 MOL         0.0792
     34 H21         0.6676   -3.4958    3.9159 H         1 MOL         0.0792
@<TRIPOS>BOND
     1    1   11 am
     2    1   12 2
     3    1   13 1
     4    2    5 1
     5    3    6 1
     6    4    7 1
     7    5    8 1
     8    6    9 1
     9    7   10 1
    10    8   11 1
    11    9   11 1
    12   10   13 1
    13    2   14 1
    14    2   15 1
    15    2   16 1
    16    3   17 1
    17    3   18 1
    18    3   19 1
    19    4   20 1
    20    4   21 1
    21    4   22 1
    22    5   23 1
    23    5   24 1
    24    6   25 1
    25    6   26 1
    26    7   27 1
    27    7   28 1
    28    8   29 1
    29    8   30 1
    30    9   31 1
    31    9   32 1
    32   10   33 1
    33   10   34 1
