@<TRIPOS>MOLECULE
25_dimethylphenol
   19    19     0     0     0
SMALL
USER_CHARGES

@<TRIPOS>ATOM
      1 C1          1.8743   -1.0531   -0.1334 C.ar      1 MOL        -0.1638
      2 C2          0.8060   -0.4743    0.5520 C.ar      1 MOL        -0.0890
      3 C3          2.8764   -1.6932    1.9697 C.ar      1 MOL        -0.1574
      4 C4          2.9095   -1.6626    0.5756 C.ar      1 MOL        -0.0367
      5 C5          0.7731   -0.5047    1.9461 C.ar      1 MOL        -0.1548
      6 C6          1.8083   -1.1142    2.6550 C.ar      1 MOL         0.1294
      7 C7          4.0508   -2.2823   -0.1574 C.3       1 MOL        -0.0622
      8 C8         -0.3780    0.1201    2.6629 C.3       1 MOL        -0.0597
      9 O1          1.7917   -1.1528    4.0168 O.3       1 MOL        -0.5021
     10 H1          1.8919   -1.0253   -1.2195 H         1 MOL         0.1327
     11 H2          0.0045   -0.0011   -0.0097 H         1 MOL         0.1310
     12 H3          3.6819   -2.1684    2.5243 H         1 MOL         0.1491
     13 H4          4.8278   -2.6038    0.5470 H         1 MOL         0.0451
     14 H5          3.7249   -3.1551   -0.7380 H         1 MOL         0.0451
     15 H6          4.4976   -1.5761   -0.8696 H         1 MOL         0.0451
     16 H7         -0.3037   -0.0699    3.7401 H         1 MOL         0.0426
     17 H8         -0.4050    1.2048    2.5006 H         1 MOL         0.0426
     18 H9         -1.3341   -0.2801    2.3028 H         1 MOL         0.0426
     19 H10         1.1571   -0.4888    4.3416 H         1 MOL         0.4204
@<TRIPOS>BOND
     1    1    2 ar
     2    1    4 ar
     3    2    5 ar
     4    3    4 ar
     5    3    6 ar
     6    4    7 1
     7    5    6 ar
     8    5    8 1
     9    6    9 1
    10    1   10 1
    11    2   11 1
    12    3   12 1
    13    7   13 1
    14    7   14 1
    15    7   15 1
    16    8   16 1
    17    8   17 1
    18    8   18 1
    19    9   19 1
