@<TRIPOS>MOLECULE
33_dimethylbutan_2_one
   19    18     0     0     0
SMALL
USER_CHARGES

@<TRIPOS>ATOM
      1 C1         -1.9541   -0.8993   -0.0332 C.2       1 MOL         0.5654
      2 C2         -0.6286   -0.3787   -0.5367 C.3       1 MOL        -0.1962
      3 C3         -1.8402    0.0713    2.2688 C.3       1 MOL        -0.0813
      4 C4         -1.1119   -2.3073    1.8941 C.3       1 MOL        -0.0813
      5 C5         -3.5277   -1.7025    1.7550 C.3       1 MOL        -0.0813
      6 C6         -2.0979   -1.2116    1.4689 C.3       1 MOL        -0.1500
      7 O1         -2.8917   -1.0445   -0.8212 O.2       1 MOL        -0.5291
      8 H1         -0.7436   -0.0321   -1.5682 H         1 MOL         0.0625
      9 H2         -0.2945    0.4659    0.0687 H         1 MOL         0.0625
     10 H3          0.1158   -1.1778   -0.5203 H         1 MOL         0.0625
     11 H4         -0.8113    0.4258    2.1446 H         1 MOL         0.0407
     12 H5         -2.5035    0.8803    1.9416 H         1 MOL         0.0407
     13 H6         -2.0065   -0.0891    3.3399 H         1 MOL         0.0407
     14 H7         -0.0721   -1.9745    1.8036 H         1 MOL         0.0407
     15 H8         -1.2255   -3.2027    1.2723 H         1 MOL         0.0407
     16 H9         -1.2694   -2.5994    2.9386 H         1 MOL         0.0407
     17 H10        -3.7614   -2.6001    1.1708 H         1 MOL         0.0407
     18 H11        -4.2718   -0.9402    1.4959 H         1 MOL         0.0407
     19 H12        -3.6603   -1.9474    2.8149 H         1 MOL         0.0407
@<TRIPOS>BOND
     1    1    2 1
     2    1    6 1
     3    1    7 2
     4    3    6 1
     5    4    6 1
     6    5    6 1
     7    2    8 1
     8    2    9 1
     9    2   10 1
    10    3   11 1
    11    3   12 1
    12    3   13 1
    13    4   14 1
    14    4   15 1
    15    4   16 1
    16    5   17 1
    17    5   18 1
    18    5   19 1
