@<TRIPOS>MOLECULE
trans_14_dimethylcyclohexane
   24    24     0     0     0
SMALL
USER_CHARGES

@<TRIPOS>ATOM
      1 C1          0.8696   -0.5734    0.3461 C.3       1 MOL        -0.0696
      2 C2          1.8746    0.3795    0.9910 C.3       1 MOL        -0.0696
      3 C3         -0.1309   -1.0531    2.6146 C.3       1 MOL        -0.0696
      4 C4          0.8743   -0.1004    3.2593 C.3       1 MOL        -0.0696
      5 C5          0.4196   -1.6683    1.3218 C.3       1 MOL        -0.0628
      6 C6          1.3236    0.9946    2.2837 C.3       1 MOL        -0.0628
      7 C7         -0.6220   -2.5762    0.6708 C.3       1 MOL        -0.0864
      8 C8          2.3642    1.9035    2.9349 C.3       1 MOL        -0.0864
      9 H1         -0.0015   -0.0017    0.0007 H         1 MOL         0.0375
     10 H2          1.3220   -1.0305   -0.5422 H         1 MOL         0.0375
     11 H3          2.8040   -0.1642    1.2041 H         1 MOL         0.0375
     12 H4          2.1279    1.1748    0.2796 H         1 MOL         0.0375
     13 H5         -0.3848   -1.8482    3.3260 H         1 MOL         0.0375
     14 H6         -1.0601   -0.5089    2.4014 H         1 MOL         0.0375
     15 H7          0.4225    0.3562    4.1482 H         1 MOL         0.0375
     16 H8          1.7456   -0.6723    3.6038 H         1 MOL         0.0375
     17 H9          1.2887   -2.2893    1.5739 H         1 MOL         0.0425
     18 H10         0.4541    1.6149    2.0315 H         1 MOL         0.0425
     19 H11        -1.3375   -2.9363    1.4160 H         1 MOL         0.0319
     20 H12        -1.1739   -2.0347   -0.1033 H         1 MOL         0.0319
     21 H13        -0.1408   -3.4431    0.2082 H         1 MOL         0.0319
     22 H14         3.3226    1.8264    2.4127 H         1 MOL         0.0319
     23 H15         2.0373    2.9472    2.9025 H         1 MOL         0.0319
     24 H16         2.5185    1.6231    3.9811 H         1 MOL         0.0319
@<TRIPOS>BOND
     1    1    2 1
     2    1    5 1
     3    2    6 1
     4    3    4 1
     5    3    5 1
     6    4    6 1
     7    5    7 1
     8    6    8 1
     9    1    9 1
    10    1   10 1
    11    2   11 1
    12    2   12 1
    13    3   13 1
    14    3   14 1
    15    4   15 1
    16    4   16 1
    17    5   17 1
    18    6   18 1
    19    7   19 1
    20    7   20 1
    21    7   21 1
    22    8   22 1
    23    8   23 1
    24    8   24 1
