@<TRIPOS>MOLECULE
12_dimethoxyethane
   16    15     0     0     0
SMALL
USER_CHARGES

@<TRIPOS>ATOM
      1 C1          0.3152    0.8016    2.4261 C.3       1 MOL         0.1181
      2 C2         -3.2682   -2.2457   -0.3502 C.3       1 MOL         0.1181
      3 C3         -0.8936    0.4506    0.4416 C.3       1 MOL         0.1166
      4 C4         -2.1461   -0.1936   -0.1209 C.3       1 MOL         0.1166
      5 O1         -0.8526    0.2362    1.8472 O.3       1 MOL        -0.4164
      6 O2         -2.1048   -1.5918    0.1373 O.3       1 MOL        -0.4164
      7 H1          0.1258    1.0343    3.4769 H         1 MOL         0.0322
      8 H2          0.5883    1.7105    1.8840 H         1 MOL         0.0322
      9 H3          1.1318    0.0791    2.3568 H         1 MOL         0.0322
     10 H4         -3.9633   -1.5037   -0.7505 H         1 MOL         0.0322
     11 H5         -3.7414   -2.8030    0.4622 H         1 MOL         0.0322
     12 H6         -2.9802   -2.9379   -1.1449 H         1 MOL         0.0322
     13 H7         -0.8901    1.5299    0.2612 H         1 MOL         0.0426
     14 H8          0.0000    0.0000    0.0000 H         1 MOL         0.0426
     15 H9         -2.2121   -0.0487   -1.2038 H         1 MOL         0.0426
     16 H10        -3.0378    0.2178    0.3611 H         1 MOL         0.0426
@<TRIPOS>BOND
     1    1    5 1
     2    2    6 1
     3    3    4 1
     4    3    5 1
     5    4    6 1
     6    1    7 1
     7    1    8 1
     8    1    9 1
     9    2   10 1
    10    2   11 1
    11    2   12 1
    12    3   13 1
    13    3   14 1
    14    4   15 1
    15    4   16 1
