@<TRIPOS>MOLECULE
2_isobutylpyrazine
   22    22     0     0     0
SMALL
USER_CHARGES

@<TRIPOS>ATOM
      1 C1         -2.3106    3.1444   -1.9980 C.ar      1 MOL         0.2725
      2 C2         -3.1113    3.0372   -0.8822 C.ar      1 MOL         0.2850
      3 C3         -0.4783    2.6221   -0.7332 C.ar      1 MOL         0.2780
      4 C4         -1.2871    2.5197    0.3646 C.ar      1 MOL         0.3046
      5 C5         -2.0273    0.0017    1.8759 C.3       1 MOL        -0.0891
      6 C6          0.3173   -0.0296    1.0009 C.3       1 MOL        -0.0891
      7 C7         -0.6900    2.1628    1.7040 C.3       1 MOL        -0.1231
      8 C8         -0.6434    0.6475    1.9816 C.3       1 MOL        -0.0622
      9 N1         -0.9796    2.9388   -1.9435 N.ar      1 MOL        -0.6277
     10 N2         -2.6101    2.7203    0.3281 N.ar      1 MOL        -0.6330
     11 H1         -2.7141    3.3990   -2.9702 H         1 MOL         0.0335
     12 H2         -4.1807    3.2026   -0.9268 H         1 MOL         0.0327
     13 H3          0.5923    2.4577   -0.6971 H         1 MOL         0.0329
     14 H4         -2.4722    0.1745    0.8900 H         1 MOL         0.0357
     15 H5         -2.7109    0.3989    2.6327 H         1 MOL         0.0357
     16 H6         -1.9626   -1.0806    2.0315 H         1 MOL         0.0357
     17 H7          0.3859   -1.1039    1.2022 H         1 MOL         0.0357
     18 H8         -0.0146    0.1006   -0.0349 H         1 MOL         0.0357
     19 H9          1.3247    0.3905    1.0902 H         1 MOL         0.0357
     20 H10         0.3182    2.5893    1.7889 H         1 MOL         0.0594
     21 H11        -1.2868    2.6637    2.4783 H         1 MOL         0.0594
     22 H12        -0.2628    0.4721    2.9960 H         1 MOL         0.0521
@<TRIPOS>BOND
     1    1    2 ar
     2    1    9 ar
     3    2   10 ar
     4    3    4 ar
     5    3    9 ar
     6    4    7 1
     7    4   10 ar
     8    5    8 1
     9    6    8 1
    10    7    8 1
    11    1   11 1
    12    2   12 1
    13    3   13 1
    14    5   14 1
    15    5   15 1
    16    5   16 1
    17    6   17 1
    18    6   18 1
    19    6   19 1
    20    7   20 1
    21    7   21 1
    22    8   22 1
