@<TRIPOS>MOLECULE
diflunisal
   26    27     0     0     0
SMALL
USER_CHARGES

@<TRIPOS>ATOM
      1 C1          1.8850   -1.0360   -0.1120 C.ar      1 MOL        -0.0389
      2 C2          4.8330   -1.4360   -0.9250 C.ar      1 MOL        -0.0728
      3 C3          0.8070   -0.4630    0.5610 C.ar      1 MOL        -0.2372
      4 C4          5.9130   -2.0030   -1.6010 C.ar      1 MOL        -0.1821
      5 C5          2.8780   -1.6520    2.0020 C.ar      1 MOL        -0.0144
      6 C6          5.4070   -4.1480   -0.6090 C.ar      1 MOL        -0.2080
      7 C7          2.9210   -1.6310    0.6080 C.ar      1 MOL        -0.0979
      8 C8          4.0400   -2.2240   -0.0910 C.ar      1 MOL        -0.0845
      9 C9          1.8000   -1.0790    2.6760 C.ar      1 MOL        -0.1669
     10 C10         0.7640   -0.4840    1.9550 C.ar      1 MOL         0.1928
     11 C11         6.2000   -3.3590   -1.4430 C.ar      1 MOL         0.1564
     12 C12         4.3270   -3.5800    0.0670 C.ar      1 MOL         0.1661
     13 C13         1.7750   -1.1100    4.1310 C.2       1 MOL         0.6583
     14 O1          1.2420   -0.2640    4.8550 O.2       1 MOL        -0.5302
     15 O2         -0.2980    0.0810    2.5950 O.3       1 MOL        -0.4580
     16 O3          2.4150   -2.1980    4.6380 O.3       1 MOL        -0.6165
     17 F1          7.2370   -3.9050   -2.0930 F         1 MOL        -0.1323
     18 F2          3.5750   -4.3510    0.8660 F         1 MOL        -0.1287
     19 H1          1.9040   -1.0120   -1.1990 H         1 MOL         0.1428
     20 H2          4.6220   -0.3780   -1.0590 H         1 MOL         0.1478
     21 H3          0.0030   -0.0010   -0.0060 H         1 MOL         0.1429
     22 H4          6.5310   -1.3910   -2.2510 H         1 MOL         0.1552
     23 H5          3.6850   -2.1150    2.5670 H         1 MOL         0.1673
     24 H6          5.6310   -5.2030   -0.4860 H         1 MOL         0.1683
     25 H7         -0.9220    0.4470    1.9480 H         1 MOL         0.4247
     26 H8          2.4030   -2.2290    5.6180 H         1 MOL         0.4460
@<TRIPOS>BOND
     1    1    3 ar
     2    1    7 ar
     3    2    4 ar
     4    2    8 ar
     5    3   10 ar
     6    4   11 ar
     7    5    7 ar
     8    5    9 ar
     9    6   11 ar
    10    6   12 ar
    11    7    8 1
    12    8   12 ar
    13    9   10 ar
    14    9   13 1
    15   10   15 1
    16   11   17 1
    17   12   18 1
    18   13   14 2
    19   13   16 1
    20    1   19 1
    21    2   20 1
    22    3   21 1
    23    4   22 1
    24    5   23 1
    25    6   24 1
    26   15   25 1
    27   16   26 1
