@<TRIPOS>MOLECULE
4_tert_butylphenol
   25    25     0     0     0
SMALL
USER_CHARGES

@<TRIPOS>ATOM
      1 C1         -0.9659   -1.0091    2.4083 C.ar      1 MOL        -0.0927
      2 C2         -3.2644   -1.5027    1.8512 C.ar      1 MOL        -0.0927
      3 C3         -0.9817   -2.0203    3.3690 C.ar      1 MOL        -0.1843
      4 C4         -3.2802   -2.5138    2.8120 C.ar      1 MOL        -0.1843
      5 C5         -2.1077   -0.7840    1.6815 C.ar      1 MOL        -0.0898
      6 C6         -2.1388   -2.7726    3.5709 C.ar      1 MOL         0.1196
      7 C7         -1.0055    0.0255   -0.4341 C.3       1 MOL        -0.0828
      8 C8         -1.7775    1.6835    1.2954 C.3       1 MOL        -0.0828
      9 C9         -3.4286    0.4950   -0.1338 C.3       1 MOL        -0.0828
     10 C10        -2.0904    0.3299    0.6216 C.3       1 MOL        -0.0150
     11 O1         -2.1536   -3.7584    4.5093 O.3       1 MOL        -0.4999
     12 H1         -0.0596   -0.4287    2.2572 H         1 MOL         0.1349
     13 H2         -4.1582   -1.3086    1.2641 H         1 MOL         0.1349
     14 H3         -0.0895   -2.2184    3.9569 H         1 MOL         0.1403
     15 H4         -4.1843   -3.0970    2.9641 H         1 MOL         0.1403
     16 H5         -0.9950    0.7883   -1.2214 H         1 MOL         0.0354
     17 H6          0.0000    0.0000    0.0000 H         1 MOL         0.0354
     18 H7         -1.1820   -0.9453   -0.9124 H         1 MOL         0.0354
     19 H8         -0.7879    1.6938    1.7653 H         1 MOL         0.0354
     20 H9         -1.7939    2.5015    0.5657 H         1 MOL         0.0354
     21 H10        -2.5137    1.9161    2.0739 H         1 MOL         0.0354
     22 H11        -3.3662    1.2992   -0.8768 H         1 MOL         0.0354
     23 H12        -3.7038   -0.4195   -0.6721 H         1 MOL         0.0354
     24 H13        -4.2482    0.7498    0.5482 H         1 MOL         0.0354
     25 H14        -1.3183   -4.2575    4.4548 H         1 MOL         0.4183
@<TRIPOS>BOND
     1    1    3 ar
     2    1    5 ar
     3    2    4 ar
     4    2    5 ar
     5    3    6 ar
     6    4    6 ar
     7    5   10 1
     8    6   11 1
     9    7   10 1
    10    8   10 1
    11    9   10 1
    12    1   12 1
    13    2   13 1
    14    3   14 1
    15    4   15 1
    16    7   16 1
    17    7   17 1
    18    7   18 1
    19    8   19 1
    20    8   20 1
    21    8   21 1
    22    9   22 1
    23    9   23 1
    24    9   24 1
    25   11   25 1
