@<TRIPOS>MOLECULE
14_dimethylnaphthalene
   24    25     0     0     0
SMALL
USER_CHARGES

@<TRIPOS>ATOM
      1 C1         -0.5687   -2.0634    0.2176 C.ar      1 MOL        -0.1290
      2 C2          0.3424   -1.0306    0.0174 C.ar      1 MOL        -0.1290
      3 C3         -0.1298   -3.3875    0.2401 C.ar      1 MOL        -0.1194
      4 C4          1.6959   -1.3179   -0.1610 C.ar      1 MOL        -0.1194
      5 C5          3.0419   -5.3094   -0.0962 C.ar      1 MOL        -0.1266
      6 C6          3.9531   -4.2766   -0.2964 C.ar      1 MOL        -0.1266
      7 C7          1.2289   -3.6952    0.0623 C.ar      1 MOL        -0.0300
      8 C8          2.1554   -2.6449   -0.1412 C.ar      1 MOL        -0.0300
      9 C9          1.6884   -5.0221    0.0821 C.ar      1 MOL        -0.0592
     10 C10         3.5141   -2.9525   -0.3190 C.ar      1 MOL        -0.0592
     11 C11         0.7627   -6.1798    0.2939 C.3       1 MOL        -0.0613
     12 C12         4.5466   -1.8906   -0.5383 C.3       1 MOL        -0.0613
     13 H1         -1.6223   -1.8386    0.3564 H         1 MOL         0.1310
     14 H2         -0.0002   -0.0000    0.0002 H         1 MOL         0.1310
     15 H3         -0.8724   -4.1661    0.3985 H         1 MOL         0.1323
     16 H4          2.3765   -0.4836   -0.3146 H         1 MOL         0.1323
     17 H5          3.3961   -6.3371   -0.0812 H         1 MOL         0.1309
     18 H6          5.0048   -4.5137   -0.4344 H         1 MOL         0.1309
     19 H7          1.0594   -6.7400    1.1866 H         1 MOL         0.0438
     20 H8         -0.2707   -5.8383    0.4190 H         1 MOL         0.0438
     21 H9          0.7766   -6.8563   -0.5679 H         1 MOL         0.0438
     22 H10         5.2196   -1.8367    0.3236 H         1 MOL         0.0438
     23 H11         5.1392   -2.0986   -1.4360 H         1 MOL         0.0438
     24 H12         4.0776   -0.9107   -0.6815 H         1 MOL         0.0438
@<TRIPOS>BOND
     1    1    2 ar
     2    1    3 ar
     3    2    4 ar
     4    3    7 ar
     5    4    8 ar
     6    5    6 ar
     7    5    9 ar
     8    6   10 ar
     9    7    8 ar
    10    7    9 ar
    11    8   10 ar
    12    9   11 1
    13   10   12 1
    14    1   13 1
    15    2   14 1
    16    3   15 1
    17    4   16 1
    18    5   17 1
    19    6   18 1
    20   11   19 1
    21   11   20 1
    22   11   21 1
    23   12   22 1
    24   12   23 1
    25   12   24 1
