@<TRIPOS>MOLECULE
CUP08016_AM1BCC_v1_0
   31    32     0     0     0
SMALL
USER_CHARGES

@<TRIPOS>ATOM
      1 C1          0.0672   -1.9879    0.9326 C.ar      1 MOL        -0.1587
      2 C2          0.7721   -3.1973    0.9450 C.ar      1 MOL        -0.0791
      3 C3          0.4138   -0.9661    0.0342 C.ar      1 MOL        -0.0888
      4 C4          1.8199   -3.3601    0.0525 C.ar      1 MOL        -0.1436
      5 C5          2.1617   -2.3551   -0.8356 C.ar      1 MOL         0.1263
      6 C6          1.4799   -1.1530   -0.8454 C.ar      1 MOL         0.0897
      7 C7          2.9160    0.5734   -1.3821 C.2       1 MOL         0.7300
      8 C8          2.6874   -4.5387   -0.1750 C.3       1 MOL        -0.0538
      9 C9          3.7399   -3.9162   -1.1214 C.3       1 MOL         0.1453
     10 C10         5.0373   -3.5693   -0.3791 C.3       1 MOL        -0.0978
     11 C11         4.0457   -4.8478   -2.2950 C.3       1 MOL        -0.0978
     12 C12         4.2863    2.4173   -2.2538 C.3       1 MOL         0.0783
     13 N1          3.2360    1.4464   -2.3862 N.am      1 MOL        -0.5291
     14 O1          3.5168    0.4941   -0.3186 O.2       1 MOL        -0.5590
     15 O2          3.1984   -2.6815   -1.6700 O.3       1 MOL        -0.3113
     16 O3          1.8004   -0.1551   -1.7585 O.3       1 MOL        -0.3595
     17 H1         -0.7594   -1.8379    1.6233 H         1 MOL         0.1371
     18 H2          0.4965   -3.9881    1.6357 H         1 MOL         0.1372
     19 H3         -0.1414   -0.0332    0.0302 H         1 MOL         0.1489
     20 H4          3.1266   -4.9269    0.7488 H         1 MOL         0.0653
     21 H5          2.1089   -5.3305   -0.6633 H         1 MOL         0.0653
     22 H6          5.7463   -3.0706   -1.0497 H         1 MOL         0.0487
     23 H7          4.8485   -2.8710    0.4441 H         1 MOL         0.0487
     24 H8          5.5162   -4.4645    0.0307 H         1 MOL         0.0487
     25 H9          4.7634   -4.3863   -2.9827 H         1 MOL         0.0487
     26 H10         4.4551   -5.8039   -1.9532 H         1 MOL         0.0487
     27 H11         3.1413   -5.0451   -2.8815 H         1 MOL         0.0487
     28 H12         3.8817    3.3007   -1.7529 H         1 MOL         0.0478
     29 H13         4.6367    2.6888   -3.2523 H         1 MOL         0.0478
     30 H14         5.1140    2.0125   -1.6652 H         1 MOL         0.0478
     31 H15         2.6029    1.4759   -3.1725 H         1 MOL         0.3195
@<TRIPOS>BOND
     1    1    2 ar
     2    1    3 ar
     3    2    4 ar
     4    3    6 ar
     5    4    5 ar
     6    4    8 1
     7    5    6 ar
     8    5   15 1
     9    6   16 1
    10    7   13 am
    11    7   14 2
    12    7   16 1
    13    8    9 1
    14    9   10 1
    15    9   11 1
    16    9   15 1
    17   12   13 1
    18    1   17 1
    19    2   18 1
    20    3   19 1
    21    8   20 1
    22    8   21 1
    23   10   22 1
    24   10   23 1
    25   10   24 1
    26   11   25 1
    27   11   26 1
    28   11   27 1
    29   12   28 1
    30   12   29 1
    31   12   30 1
    32   13   31 1
