@<TRIPOS>MOLECULE
SAMPL4_009
   23    23     0     0     0
SMALL
USER_CHARGES

@<TRIPOS>ATOM
      1 C1          1.6890   -0.9010    3.3120 C.ar      1 MOL        -0.1906
      2 C2          2.9110   -1.5650    0.8940 C.ar      1 MOL         0.1231
      3 C3          1.6780   -0.9120    0.8960 C.ar      1 MOL         0.0511
      4 C4          3.5320   -1.8860    2.1000 C.ar      1 MOL         0.0511
      5 C5          1.0670   -0.5800    2.1060 C.ar      1 MOL         0.0579
      6 C6          2.9220   -1.5540    3.3100 C.ar      1 MOL         0.0579
      7 C7          1.0490   -0.5530    4.5800 C.2       1 MOL         0.5875
      8 C8          0.2110   -1.5840   -0.8510 C.3       1 MOL         0.1102
      9 C9          4.7150   -3.9490    2.0730 C.3       1 MOL         0.1102
     10 O1         -0.0580   -0.9760    4.9060 O.2       1 MOL        -0.4891
     11 O2          3.5080   -1.8890   -0.2890 O.3       1 MOL        -0.4821
     12 O3          1.0860   -0.6060   -0.2950 O.3       1 MOL        -0.3259
     13 O4          4.7390   -2.5250    2.0770 O.3       1 MOL        -0.3259
     14 Cl1        -0.4640    0.2320    2.0880 Cl        1 MOL        -0.0489
     15 Cl2         3.7110   -1.9610    4.7980 Cl        1 MOL        -0.0489
     16 H1          1.6090    0.1240    5.2570 H         1 MOL         0.0202
     17 H2         -0.1930   -1.2160   -1.7970 H         1 MOL         0.0500
     18 H3         -0.6020   -1.7880   -0.1490 H         1 MOL         0.0500
     19 H4          0.7730   -2.5030   -1.0300 H         1 MOL         0.0500
     20 H5          5.7390   -4.3320    2.0540 H         1 MOL         0.0500
     21 H6          4.1660   -4.3030    1.1970 H         1 MOL         0.0500
     22 H7          4.2150   -4.2990    2.9800 H         1 MOL         0.0500
     23 H8          4.3530   -2.3360   -0.1240 H         1 MOL         0.4430
@<TRIPOS>BOND
     1    1    5 ar
     2    1    6 ar
     3    1    7 1
     4    2    3 ar
     5    2    4 ar
     6    2   11 1
     7    3    5 ar
     8    3   12 1
     9    4    6 ar
    10    4   13 1
    11    5   14 1
    12    6   15 1
    13    7   10 2
    14    8   12 1
    15    9   13 1
    16    7   16 1
    17    8   17 1
    18    8   18 1
    19    8   19 1
    20    9   20 1
    21    9   21 1
    22    9   22 1
    23   11   23 1
