@<TRIPOS>MOLECULE
hexa_15_diene
   16    15     0     0     0
SMALL
USER_CHARGES

@<TRIPOS>ATOM
      1 C1         -6.2841    2.7557    1.9799 C.2       1 MOL        -0.2231
      2 C2         -2.0316    3.7239    1.7424 C.2       1 MOL        -0.2231
      3 C3         -5.5553    2.7021    0.8594 C.2       1 MOL        -0.1651
      4 C4         -2.5853    2.5134    1.6109 C.2       1 MOL        -0.1651
      5 C5         -4.6457    1.5614    0.5031 C.3       1 MOL        -0.0447
      6 C6         -3.1871    1.9995    0.3344 C.3       1 MOL        -0.0447
      7 H1         -6.9286    3.6000    2.1975 H         1 MOL         0.1107
      8 H2         -6.2448    1.9455    2.6997 H         1 MOL         0.1107
      9 H3         -1.6082    4.0548    2.6842 H         1 MOL         0.1107
     10 H4         -1.9937    4.4050    0.8992 H         1 MOL         0.1107
     11 H5         -5.6256    3.5244    0.1520 H         1 MOL         0.1187
     12 H6         -2.5970    1.8492    2.4712 H         1 MOL         0.1187
     13 H7         -4.9960    1.1362   -0.4454 H         1 MOL         0.0464
     14 H8         -4.7125    0.7579    1.2475 H         1 MOL         0.0464
     15 H9         -3.1099    2.7469   -0.4654 H         1 MOL         0.0464
     16 H10        -2.5964    1.1343    0.0090 H         1 MOL         0.0464
@<TRIPOS>BOND
     1    1    3 2
     2    2    4 2
     3    3    5 1
     4    4    6 1
     5    5    6 1
     6    1    7 1
     7    1    8 1
     8    2    9 1
     9    2   10 1
    10    3   11 1
    11    4   12 1
    12    5   13 1
    13    5   14 1
    14    6   15 1
    15    6   16 1
