@<TRIPOS>MOLECULE
dimethyl_ether
    9     8     0     0     0
SMALL
USER_CHARGES

@<TRIPOS>ATOM
      1 C1         -0.6104   -0.5152    0.7482 C.3       1 MOL         0.1175
      2 C2          1.2893   -1.1660    1.9689 C.3       1 MOL         0.1175
      3 O1          0.0353   -0.4987    2.0141 O.3       1 MOL        -0.4215
      4 H1          0.1359   -0.6362   -0.0408 H         1 MOL         0.0311
      5 H2         -1.1586    0.4195    0.6056 H         1 MOL         0.0311
      6 H3         -1.3099   -1.3539    0.7168 H         1 MOL         0.0311
      7 H4          2.0860   -0.4355    1.8079 H         1 MOL         0.0311
      8 H5          1.2838   -1.8996    1.1588 H         1 MOL         0.0311
      9 H6          1.4542   -1.6777    2.9201 H         1 MOL         0.0311
@<TRIPOS>BOND
     1    1    3 1
     2    2    3 1
     3    1    4 1
     4    1    5 1
     5    1    6 1
     6    2    7 1
     7    2    8 1
     8    2    9 1
