@<TRIPOS>MOLECULE
24_dimethylpentane
   23    22     0     0     0
SMALL
USER_CHARGES

@<TRIPOS>ATOM
      1 C1         -1.7459    1.5253   -1.1965 C.3       1 MOL        -0.0873
      2 C2         -0.2011   -0.4405   -1.0963 C.3       1 MOL        -0.0873
      3 C3         -2.8543    0.8035    1.2721 C.3       1 MOL        -0.0873
      4 C4         -3.7386   -1.5303    1.4504 C.3       1 MOL        -0.0873
      5 C5         -2.6543   -0.8084   -0.6980 C.3       1 MOL        -0.0702
      6 C6         -1.6117    0.0267   -1.4683 C.3       1 MOL        -0.0658
      7 C7         -2.6485   -0.6472    0.8355 C.3       1 MOL        -0.0658
      8 H1         -0.9470    2.0836   -1.6964 H         1 MOL         0.0320
      9 H2         -2.6961    1.9153   -1.5731 H         1 MOL         0.0320
     10 H3         -1.6882    1.7410   -0.1243 H         1 MOL         0.0320
     11 H4          0.5544    0.1117   -1.6654 H         1 MOL         0.0320
     12 H5          0.0004   -0.2893   -0.0303 H         1 MOL         0.0320
     13 H6         -0.0724   -1.5051   -1.3187 H         1 MOL         0.0320
     14 H7         -2.0191    1.4367    0.9581 H         1 MOL         0.0320
     15 H8         -3.7758    1.2183    0.8500 H         1 MOL         0.0320
     16 H9         -2.9210    0.8749    2.3632 H         1 MOL         0.0320
     17 H10        -3.7237   -1.4629    2.5434 H         1 MOL         0.0320
     18 H11        -4.7346   -1.2313    1.1062 H         1 MOL         0.0320
     19 H12        -3.5870   -2.5807    1.1801 H         1 MOL         0.0320
     20 H13        -2.5022   -1.8697   -0.9376 H         1 MOL         0.0382
     21 H14        -3.6538   -0.5522   -1.0753 H         1 MOL         0.0382
     22 H15        -1.7363   -0.1422   -2.5442 H         1 MOL         0.0454
     23 H16        -1.6874   -0.9947    1.2321 H         1 MOL         0.0454
@<TRIPOS>BOND
     1    1    6 1
     2    2    6 1
     3    3    7 1
     4    4    7 1
     5    5    6 1
     6    5    7 1
     7    1    8 1
     8    1    9 1
     9    1   10 1
    10    2   11 1
    11    2   12 1
    12    2   13 1
    13    3   14 1
    14    3   15 1
    15    3   16 1
    16    4   17 1
    17    4   18 1
    18    4   19 1
    19    5   20 1
    20    5   21 1
    21    6   22 1
    22    7   23 1
