@<TRIPOS>MOLECULE
res
   26    25     0     0     0
SMALL
USER_CHARGES

@<TRIPOS>ATOM
      1 O1         -0.7140    2.0810    1.2330 O.2       1 MOL        -0.8004
      2 P1         -0.0040    1.5980   -0.0140 P.3       1 MOL         1.5919
      3 O2          0.1020   -0.0330   -0.1350 O.3       1 MOL        -0.5685
      4 C1         -1.1000   -0.7810   -0.0240 C.3       1 MOL         0.1611
      5 H1         -1.4700   -0.6740    0.9930 H         1 MOL         0.0609
      6 H2         -1.8390   -0.3870   -0.7330 H         1 MOL         0.0332
      7 C2         -0.7990   -2.2340   -0.3330 C.3       1 MOL        -0.0964
      8 H3         -1.6950   -2.8390   -0.2410 H         1 MOL         0.0456
      9 H4         -0.0440   -2.6290    0.3350 H         1 MOL         0.0501
     10 H5         -0.4040   -2.3430   -1.3400 H         1 MOL         0.0491
     11 O3          1.5430    2.0670   -0.1580 O.3       1 MOL        -0.5685
     12 C3          1.8130    3.4810   -0.0360 C.3       1 MOL         0.1630
     13 H6          1.2020    4.0340   -0.7280 H         1 MOL         0.0333
     14 H7          1.5930    3.8050    0.9880 H         1 MOL         0.0594
     15 C4          3.2740    3.7160   -0.3370 C.3       1 MOL        -0.0965
     16 H8          3.5380    3.3710   -1.3420 H         1 MOL         0.0494
     17 H9          3.9140    3.1670    0.3480 H         1 MOL         0.0500
     18 H10         3.5240    4.7720   -0.2620 H         1 MOL         0.0456
     19 O4         -0.6890    2.0790   -1.4190 O.3       1 MOL        -0.5633
     20 C5         -0.1080    1.6710   -2.6630 C.3       1 MOL         0.1630
     21 H11         0.9200    2.0360   -2.7350 H         1 MOL         0.0452
     22 H12        -0.0890    0.5810   -2.7100 H         1 MOL         0.0453
     23 C6         -0.9320    2.2150   -3.7980 C.3       1 MOL        -0.0963
     24 H13        -0.9640    3.3220   -3.7400 H         1 MOL         0.0502
     25 H14        -1.9870    1.8700   -3.7300 H         1 MOL         0.0504
     26 H15        -0.5190    1.9650   -4.7730 H         1 MOL         0.0432
@<TRIPOS>BOND
     1    1    2 2
     2    2    3 1
     3    2   11 1
     4    2   19 1
     5    3    4 1
     6    4    5 1
     7    4    6 1
     8    4    7 1
     9    7    8 1
    10    7    9 1
    11    7   10 1
    12   11   12 1
    13   12   13 1
    14   12   14 1
    15   12   15 1
    16   15   16 1
    17   15   17 1
    18   15   18 1
    19   19   20 1
    20   20   21 1
    21   20   22 1
    22   20   23 1
    23   23   24 1
    24   23   25 1
    25   23   26 1
