@<TRIPOS>MOLECULE
butanenitrile
   12    11     0     0     0
SMALL
USER_CHARGES

@<TRIPOS>ATOM
      1 C1         -2.2442    3.3040   -1.0639 C.1       1 MOL         0.2172
      2 C2         -0.0177    0.2011   -1.0759 C.3       1 MOL        -0.0950
      3 C3         -1.0966    2.4513   -0.7272 C.3       1 MOL        -0.0297
      4 C4         -1.1844    1.1047   -1.4423 C.3       1 MOL        -0.0752
      5 N1         -3.1499    3.9792   -1.3289 N.1       1 MOL        -0.3763
      6 H1          0.9363    0.6590   -1.3563 H         1 MOL         0.0385
      7 H2         -0.0000    0.0000    0.0000 H         1 MOL         0.0385
      8 H3         -0.1013   -0.7567   -1.5990 H         1 MOL         0.0385
      9 H4         -0.1679    2.9616   -1.0073 H         1 MOL         0.0718
     10 H5         -1.0634    2.2954    0.3573 H         1 MOL         0.0718
     11 H6         -1.1955    1.2559   -2.5289 H         1 MOL         0.0501
     12 H7         -2.1245    0.6021   -1.1833 H         1 MOL         0.0501
@<TRIPOS>BOND
     1    1    3 1
     2    1    5 3
     3    2    4 1
     4    3    4 1
     5    2    6 1
     6    2    7 1
     7    2    8 1
     8    3    9 1
     9    3   10 1
    10    4   11 1
    11    4   12 1
