@<TRIPOS>MOLECULE
224_trimethylpentane
   26    25     0     0     0
SMALL
USER_CHARGES

@<TRIPOS>ATOM
      1 C1          0.1431   -1.3722    1.8257 C.3       1 MOL        -0.0870
      2 C2         -1.1166   -0.6952   -0.2133 C.3       1 MOL        -0.0870
      3 C3         -2.9258   -4.7488    2.2767 C.3       1 MOL        -0.0835
      4 C4         -2.1639   -2.7308    3.5511 C.3       1 MOL        -0.0835
      5 C5         -0.4897   -4.3145    2.5936 C.3       1 MOL        -0.0835
      6 C6         -1.7667   -2.8207    1.0369 C.3       1 MOL        -0.0628
      7 C7         -1.2356   -1.3727    1.1556 C.3       1 MOL        -0.0624
      8 C8         -1.8598   -3.6475    2.3520 C.3       1 MOL        -0.0516
      9 H1          0.8651   -1.9624    1.2509 H         1 MOL         0.0319
     10 H2          0.5329   -0.3525    1.9160 H         1 MOL         0.0319
     11 H3          0.0842   -1.7944    2.8347 H         1 MOL         0.0319
     12 H4         -0.4216   -1.2361   -0.8650 H         1 MOL         0.0319
     13 H5         -0.7432    0.3291   -0.1048 H         1 MOL         0.0319
     14 H6         -2.0797   -0.6382   -0.7255 H         1 MOL         0.0319
     15 H7         -3.9353   -4.3311    2.2078 H         1 MOL         0.0326
     16 H8         -2.9023   -5.3810    3.1719 H         1 MOL         0.0326
     17 H9         -2.7623   -5.3990    1.4106 H         1 MOL         0.0326
     18 H10        -2.1304   -3.2912    4.4927 H         1 MOL         0.0326
     19 H11        -1.4318   -1.9188    3.6237 H         1 MOL         0.0326
     20 H12        -3.1584   -2.2795    3.4801 H         1 MOL         0.0326
     21 H13         0.3071   -3.5661    2.6723 H         1 MOL         0.0326
     22 H14        -0.4890   -4.8985    3.5211 H         1 MOL         0.0326
     23 H15        -0.2308   -4.9940    1.7736 H         1 MOL         0.0326
     24 H16        -2.7538   -2.7992    0.5550 H         1 MOL         0.0367
     25 H17        -1.1207   -3.3821    0.3471 H         1 MOL         0.0367
     26 H18        -1.9013   -0.7694    1.7806 H         1 MOL         0.0429
@<TRIPOS>BOND
     1    1    7 1
     2    2    7 1
     3    3    8 1
     4    4    8 1
     5    5    8 1
     6    6    7 1
     7    6    8 1
     8    1    9 1
     9    1   10 1
    10    1   11 1
    11    2   12 1
    12    2   13 1
    13    2   14 1
    14    3   15 1
    15    3   16 1
    16    3   17 1
    17    4   18 1
    18    4   19 1
    19    4   20 1
    20    5   21 1
    21    5   22 1
    22    5   23 1
    23    6   24 1
    24    6   25 1
    25    7   26 1
