@<TRIPOS>MOLECULE
3_nitrotoluene
   17    17     0     0     0
SMALL
USER_CHARGES

@<TRIPOS>ATOM
      1 C1          0.8324   -0.3948    0.5751 C.ar      1 MOL        -0.1318
      2 C2          1.8991   -1.0135   -0.0768 C.ar      1 MOL        -0.0954
      3 C3          0.8349   -0.2829    1.9655 C.ar      1 MOL        -0.0777
      4 C4          2.9708   -1.4085    2.0522 C.ar      1 MOL        -0.0760
      5 C5          2.9683   -1.5204    0.6618 C.ar      1 MOL        -0.0683
      6 C6          1.9042   -0.7896    2.7040 C.ar      1 MOL        -0.1635
      7 C7          4.1093   -2.1806   -0.0358 C.3       1 MOL        -0.0655
      8 N1          1.9070   -0.6739    4.1191 N.pl3     1 MOL         0.3100
      9 O1          0.9382   -0.1123    4.6853 O.3       1 MOL        -0.2057
     10 O2          2.8781   -1.1366    4.7653 O.2       1 MOL        -0.2057
     11 H1         -0.0002   -0.0005    0.0001 H         1 MOL         0.1477
     12 H2          1.8889   -1.0963   -1.1603 H         1 MOL         0.1436
     13 H3         -0.0025    0.2027    2.4612 H         1 MOL         0.1665
     14 H4          3.8075   -1.8043    2.6243 H         1 MOL         0.1665
     15 H5          4.8782   -2.4785    0.6874 H         1 MOL         0.0517
     16 H6          3.7795   -3.0744   -0.5811 H         1 MOL         0.0517
     17 H7          4.5671   -1.5092   -0.7739 H         1 MOL         0.0517
@<TRIPOS>BOND
     1    1    2 ar
     2    1    3 ar
     3    2    5 ar
     4    3    6 ar
     5    4    5 ar
     6    4    6 ar
     7    5    7 1
     8    6    8 1
     9    8    9 1
    10    8   10 2
    11    1   11 1
    12    2   12 1
    13    3   13 1
    14    4   14 1
    15    7   15 1
    16    7   16 1
    17    7   17 1
