@<TRIPOS>MOLECULE
CUP08017_AM1BCC_v1_0
   34    34     0     0     0
SMALL
USER_CHARGES

@<TRIPOS>ATOM
      1 C1         -4.7415    1.5983    3.8728 C.ar      1 MOL        -0.0872
      2 C2         -3.1152    3.3690    3.6301 C.ar      1 MOL        -0.0872
      3 C3         -5.7665    2.4981    3.5661 C.ar      1 MOL        -0.1222
      4 C4         -4.1392    4.2694    3.3233 C.ar      1 MOL        -0.1222
      5 C5         -3.4098    2.0273    3.8948 C.ar      1 MOL        -0.0718
      6 C6         -5.4605    3.8293    3.2901 C.ar      1 MOL         0.0331
      7 C7          0.1159   -1.9114   -1.8634 C.3       1 MOL        -0.1134
      8 C8         -2.0143   -5.8204    3.4143 C.3       1 MOL        -0.1134
      9 C9          0.3653   -1.6076   -0.4003 C.3       1 MOL         0.1323
     10 C10        -2.4772   -4.6355    2.5912 C.3       1 MOL         0.1323
     11 C11        -2.2377   -0.2451    2.8931 C.3       1 MOL         0.1143
     12 O1         -0.0282   -2.7349    0.3667 O.3       1 MOL        -0.4648
     13 O2         -1.3894   -4.1846    1.7991 O.3       1 MOL        -0.4648
     14 P1         -1.3856   -2.6485    1.2611 P.3       1 MOL         0.6390
     15 S1         -2.9606   -2.2245    0.1919 S.2       1 MOL        -0.4586
     16 S2         -2.0822    0.9063    4.2894 S.3       1 MOL         0.0602
     17 S3         -0.9014   -1.4569    2.9234 S.3       1 MOL        -0.3419
     18 Cl1        -6.7217    4.9358    2.9122 Cl        1 MOL        -0.0809
     19 H1         -4.9985    0.5679    4.1067 H         1 MOL         0.1464
     20 H2         -2.0875    3.7253    3.6603 H         1 MOL         0.1464
     21 H3         -6.7983    2.1565    3.5518 H         1 MOL         0.1541
     22 H4         -3.8989    5.3088    3.1163 H         1 MOL         0.1541
     23 H5          0.6954   -2.7852   -2.1795 H         1 MOL         0.0503
     24 H6         -0.9389   -2.1504   -2.0338 H         1 MOL         0.0503
     25 H7          0.3913   -1.0597   -2.4914 H         1 MOL         0.0503
     26 H8         -1.6515   -6.6238    2.7646 H         1 MOL         0.0503
     27 H9         -1.1805   -5.5358    4.0648 H         1 MOL         0.0503
     28 H10        -2.8283   -6.2071    4.0335 H         1 MOL         0.0503
     29 H11        -0.2302   -0.7431   -0.0918 H         1 MOL         0.0750
     30 H12         1.4244   -1.3827   -0.2421 H         1 MOL         0.0750
     31 H13        -2.8295   -3.8379    3.2522 H         1 MOL         0.0750
     32 H14        -3.2966   -4.9373    1.9318 H         1 MOL         0.0750
     33 H15        -3.1952   -0.7685    2.9514 H         1 MOL         0.1074
     34 H16        -2.1948    0.3125    1.9536 H         1 MOL         0.1074
@<TRIPOS>BOND
     1    1    3 ar
     2    1    5 ar
     3    2    4 ar
     4    2    5 ar
     5    3    6 ar
     6    4    6 ar
     7    5   16 1
     8    6   18 1
     9    7    9 1
    10    8   10 1
    11    9   12 1
    12   10   13 1
    13   11   16 1
    14   11   17 1
    15   12   14 1
    16   13   14 1
    17   14   15 2
    18   14   17 1
    19    1   19 1
    20    2   20 1
    21    3   21 1
    22    4   22 1
    23    7   23 1
    24    7   24 1
    25    7   25 1
    26    8   26 1
    27    8   27 1
    28    8   28 1
    29    9   29 1
    30    9   30 1
    31   10   31 1
    32   10   32 1
    33   11   33 1
    34   11   34 1
