@<TRIPOS>MOLECULE
CUP08007_AM1BCC_v1_0
   38    38     0     0     0
SMALL
USER_CHARGES

@<TRIPOS>ATOM
      1 C1          3.3965   -3.8317   -5.0067 C.ar      1 MOL        -0.1165
      2 C2          2.3791   -2.8901   -4.8870 C.ar      1 MOL        -0.1338
      3 C3          4.5184   -3.7497   -4.1877 C.ar      1 MOL        -0.1338
      4 C4          2.4669   -1.8462   -3.9507 C.ar      1 MOL        -0.0571
      5 C5          4.6464   -2.7215   -3.2386 C.ar      1 MOL        -0.0571
      6 C6          3.6114   -1.7631   -3.1274 C.ar      1 MOL         0.0230
      7 C7          4.5409    0.4117   -2.4050 C.2       1 MOL         0.6567
      8 C8          1.5370    0.3345   -4.8024 C.3       1 MOL        -0.0866
      9 C9          5.7427   -3.7050   -1.1949 C.3       1 MOL        -0.0866
     10 C10         1.5121   -0.1310    0.5904 C.3       1 MOL         0.1166
     11 C11         1.3218   -0.8587   -3.8814 C.3       1 MOL        -0.0479
     12 C12         5.8769   -2.7299   -2.3560 C.3       1 MOL        -0.0479
     13 C13         5.0243    0.6163   -3.8386 C.3       1 MOL        -0.0447
     14 C14         3.1737   -0.9224   -0.8685 C.3       1 MOL         0.3009
     15 N1          3.7257   -0.7041   -2.1922 N.am      1 MOL        -0.4258
     16 O1          4.8549    1.1676   -1.4825 O.2       1 MOL        -0.5794
     17 O2          2.0008   -0.1251   -0.7419 O.3       1 MOL        -0.4358
     18 Cl1         5.7244    2.2362   -4.0654 Cl        1 MOL        -0.1384
     19 H1          3.3118   -4.6340   -5.7356 H         1 MOL         0.1368
     20 H2          1.5073   -2.9717   -5.5340 H         1 MOL         0.1376
     21 H3          5.2982   -4.5028   -4.2886 H         1 MOL         0.1376
     22 H4          2.4199    0.9113   -4.5071 H         1 MOL         0.0387
     23 H5          0.6714    1.0033   -4.7621 H         1 MOL         0.0387
     24 H6          1.6789    0.0209   -5.8413 H         1 MOL         0.0387
     25 H7          4.8954   -3.4470   -0.5522 H         1 MOL         0.0387
     26 H8          6.6495   -3.6884   -0.5821 H         1 MOL         0.0387
     27 H9          5.5945   -4.7307   -1.5491 H         1 MOL         0.0387
     28 H10         0.6010    0.4724    0.6257 H         1 MOL         0.0394
     29 H11         2.2475    0.3086    1.2713 H         1 MOL         0.0394
     30 H12         1.2682   -1.1504    0.9052 H         1 MOL         0.0394
     31 H13         0.3659   -1.3389   -4.1124 H         1 MOL         0.0491
     32 H14         1.2215   -0.5062   -2.8467 H         1 MOL         0.0491
     33 H15         6.7493   -3.0036   -2.9632 H         1 MOL         0.0491
     34 H16         6.0996   -1.7322   -1.9674 H         1 MOL         0.0491
     35 H17         4.1928    0.5319   -4.5417 H         1 MOL         0.0921
     36 H18         5.8021   -0.1120   -4.0786 H         1 MOL         0.0921
     37 H19         3.9137   -0.6380   -0.1110 H         1 MOL         0.0752
     38 H20         2.9098   -1.9775   -0.7300 H         1 MOL         0.0752
@<TRIPOS>BOND
     1    1    2 ar
     2    1    3 ar
     3    2    4 ar
     4    3    5 ar
     5    4    6 ar
     6    4   11 1
     7    5    6 ar
     8    5   12 1
     9    6   15 1
    10    7   13 1
    11    7   15 am
    12    7   16 2
    13    8   11 1
    14    9   12 1
    15   10   17 1
    16   13   18 1
    17   14   15 1
    18   14   17 1
    19    1   19 1
    20    2   20 1
    21    3   21 1
    22    8   22 1
    23    8   23 1
    24    8   24 1
    25    9   25 1
    26    9   26 1
    27    9   27 1
    28   10   28 1
    29   10   29 1
    30   10   30 1
    31   11   31 1
    32   11   32 1
    33   12   33 1
    34   12   34 1
    35   13   35 1
    36   13   36 1
    37   14   37 1
    38   14   38 1
