@<TRIPOS>MOLECULE
13_dichlorobenzene
   12    12     0     0     0
SMALL
USER_CHARGES

@<TRIPOS>ATOM
      1 C1          0.8324   -0.3948    0.5751 C.ar      1 MOL        -0.1132
      2 C2          1.8991   -1.0135   -0.0768 C.ar      1 MOL        -0.1246
      3 C3          0.8349   -0.2829    1.9655 C.ar      1 MOL        -0.1246
      4 C4          2.9708   -1.4085    2.0522 C.ar      1 MOL        -0.1211
      5 C5          2.9683   -1.5204    0.6618 C.ar      1 MOL         0.0243
      6 C6          1.9042   -0.7896    2.7040 C.ar      1 MOL         0.0243
      7 Cl1         4.2838   -2.2835   -0.1434 Cl        1 MOL        -0.0858
      8 Cl2         1.9069   -0.6513    4.4196 Cl        1 MOL        -0.0858
      9 H1          0.0002    0.0001   -0.0000 H         1 MOL         0.1429
     10 H2          1.8835   -1.0950   -1.1608 H         1 MOL         0.1509
     11 H3         -0.0028    0.2023    2.4601 H         1 MOL         0.1509
     12 H4          3.8045   -1.8035    2.6291 H         1 MOL         0.1618
@<TRIPOS>BOND
     1    1    2 ar
     2    1    3 ar
     3    2    5 ar
     4    3    6 ar
     5    4    5 ar
     6    4    6 ar
     7    5    7 1
     8    6    8 1
     9    1    9 1
    10    2   10 1
    11    3   11 1
    12    4   12 1
