@<TRIPOS>MOLECULE
CUP08006_AM1BCC_v1_0
   12    11     0     0     0
SMALL
USER_CHARGES

@<TRIPOS>ATOM
      1 C1         -0.9113    0.4611    0.4455 C.3       1 MOL         0.1308
      2 C2         -2.1636   -0.1864   -0.1368 C.3       1 MOL         0.1317
      3 N1         -4.5177    0.0001   -0.1376 N.pl3     1 MOL         0.3806
      4 O1         -5.5026    0.5995    0.2901 O.3       1 MOL        -0.1777
      5 O2         -4.4509   -0.9568   -0.9114 O.2       1 MOL        -0.1777
      6 O3         -0.7323    1.7554   -0.1227 O.3       1 MOL        -0.5975
      7 O4         -3.3028    0.4997    0.3824 O.3       1 MOL        -0.3560
      8 H1         -0.0275   -0.1383    0.2086 H         1 MOL         0.0445
      9 H2         -0.9992    0.5750    1.5307 H         1 MOL         0.0445
     10 H3         -2.1943   -1.2385    0.1696 H         1 MOL         0.0804
     11 H4         -2.1405   -0.1017   -1.2300 H         1 MOL         0.0804
     12 H5          0.0366    2.1607    0.3154 H         1 MOL         0.4160
@<TRIPOS>BOND
     1    1    2 1
     2    1    6 1
     3    2    7 1
     4    3    4 1
     5    3    5 2
     6    3    7 1
     7    1    8 1
     8    1    9 1
     9    2   10 1
    10    2   11 1
    11    6   12 1
