@<TRIPOS>MOLECULE
12_diacetoxyethane
   20    19     0     0     0
SMALL
USER_CHARGES

@<TRIPOS>ATOM
      1 C1         -0.7126    1.3208   -1.5485 C.2       1 MOL         0.6301
      2 C2         -4.7448   -2.1207   -2.4716 C.2       1 MOL         0.6301
      3 C3         -0.1306    1.1111   -0.1834 C.3       1 MOL        -0.1459
      4 C4         -4.3196   -3.5311   -2.1961 C.3       1 MOL        -0.1459
      5 C5         -2.5898    0.8104   -2.8899 C.3       1 MOL         0.1293
      6 C6         -3.9063    0.0606   -2.8220 C.3       1 MOL         0.1293
      7 O1         -0.1670    1.9646   -2.4344 O.2       1 MOL        -0.5413
      8 O2         -5.9099   -1.7679   -2.5948 O.2       1 MOL        -0.5413
      9 O3         -1.9187    0.6904   -1.6316 O.3       1 MOL        -0.4389
     10 O4         -3.6452   -1.3131   -2.5610 O.3       1 MOL        -0.4389
     11 H1          0.0291    0.0443   -0.0082 H         1 MOL         0.0757
     12 H2         -0.7988    1.5302    0.5731 H         1 MOL         0.0757
     13 H3          0.8336    1.6234   -0.1177 H         1 MOL         0.0757
     14 H4         -3.7867   -3.5784   -1.2433 H         1 MOL         0.0757
     15 H5         -3.6867   -3.8934   -3.0102 H         1 MOL         0.0757
     16 H6         -5.2046   -4.1709   -2.1328 H         1 MOL         0.0757
     17 H7         -2.7514    1.8740   -3.0899 H         1 MOL         0.0697
     18 H8         -1.9455    0.3833   -3.6639 H         1 MOL         0.0697
     19 H9         -4.4495    0.1303   -3.7697 H         1 MOL         0.0697
     20 H10        -4.5281    0.4514   -2.0113 H         1 MOL         0.0697
@<TRIPOS>BOND
     1    1    3 1
     2    1    7 2
     3    1    9 1
     4    2    4 1
     5    2    8 2
     6    2   10 1
     7    5    6 1
     8    5    9 1
     9    6   10 1
    10    3   11 1
    11    3   12 1
    12    3   13 1
    13    4   14 1
    14    4   15 1
    15    4   16 1
    16    5   17 1
    17    5   18 1
    18    6   19 1
    19    6   20 1
