@<TRIPOS>MOLECULE
N_acetylpyrrolidine
   19    19     0     0     0
SMALL
USER_CHARGES

@<TRIPOS>ATOM
      1 C1         -0.8576   -2.3754    3.1485 C.2       1 MOL         0.6635
      2 C2         -0.1848   -1.0587   -0.2182 C.3       1 MOL        -0.0935
      3 C3          1.0829   -1.8649    0.0355 C.3       1 MOL        -0.0935
      4 C4         -1.1613   -1.6371    0.7942 C.3       1 MOL         0.0987
      5 C5          1.0860   -2.0286    1.5489 C.3       1 MOL         0.0987
      6 C6          0.1446   -2.7768    4.2009 C.3       1 MOL        -0.1639
      7 N1         -0.3265   -2.0398    1.9165 N.am      1 MOL        -0.4952
      8 O1         -2.0624   -2.3650    3.4059 O.2       1 MOL        -0.6114
      9 H1          0.0006    0.0001   -0.0007 H         1 MOL         0.0547
     10 H2         -0.5466   -1.1404   -1.2468 H         1 MOL         0.0547
     11 H3          1.0005   -2.8455   -0.4486 H         1 MOL         0.0547
     12 H4          1.9860   -1.3734   -0.3364 H         1 MOL         0.0547
     13 H5         -1.9252   -0.9219    1.1134 H         1 MOL         0.0475
     14 H6         -1.6565   -2.5351    0.4082 H         1 MOL         0.0475
     15 H7          1.5811   -2.9466    1.8784 H         1 MOL         0.0475
     16 H8          1.5530   -1.1716    2.0464 H         1 MOL         0.0475
     17 H9          0.9897   -2.0992    4.1310 H         1 MOL         0.0628
     18 H10         0.4585   -3.7961    4.0028 H         1 MOL         0.0628
     19 H11        -0.3280   -2.6934    5.1736 H         1 MOL         0.0628
@<TRIPOS>BOND
     1    1    6 1
     2    1    7 am
     3    1    8 2
     4    2    3 1
     5    2    4 1
     6    3    5 1
     7    4    7 1
     8    5    7 1
     9    2    9 1
    10    2   10 1
    11    3   11 1
    12    3   12 1
    13    4   13 1
    14    4   14 1
    15    5   15 1
    16    5   16 1
    17    6   17 1
    18    6   18 1
    19    6   19 1
