@<TRIPOS>MOLECULE
n_decane
   32    31     0     0     0
SMALL
USER_CHARGES

@<TRIPOS>ATOM
      1 C1          0.4524   -0.7406    0.2814 C.3       1 MOL        -0.0896
      2 C2         -7.0612   -8.7114   -3.0138 C.3       1 MOL        -0.0896
      3 C3         -0.2801   -2.0451    0.5523 C.3       1 MOL        -0.0776
      4 C4         -6.3263   -7.4083   -3.2894 C.3       1 MOL        -0.0776
      5 C5         -1.2774   -2.3688   -0.5599 C.3       1 MOL        -0.0768
      6 C6         -5.4696   -6.9881   -2.0943 C.3       1 MOL        -0.0768
      7 C7         -2.0367   -3.6649   -0.2669 C.3       1 MOL        -0.0771
      8 C8         -4.7181   -5.6718   -2.3184 C.3       1 MOL        -0.0771
      9 C9         -3.0068   -4.0067   -1.4000 C.3       1 MOL        -0.0767
     10 C10        -3.8035   -5.2915   -1.1510 C.3       1 MOL        -0.0767
     11 H1          1.1611   -0.5292    1.0883 H         1 MOL         0.0314
     12 H2         -0.2491    0.0973    0.2171 H         1 MOL         0.0314
     13 H3          1.0126   -0.7930   -0.6576 H         1 MOL         0.0314
     14 H4         -7.6711   -8.9925   -3.8781 H         1 MOL         0.0314
     15 H5         -6.3563   -9.5254   -2.8168 H         1 MOL         0.0314
     16 H6         -7.7236   -8.6125   -2.1479 H         1 MOL         0.0314
     17 H7         -0.8039   -1.9705    1.5125 H         1 MOL         0.0370
     18 H8          0.4518   -2.8561    0.6439 H         1 MOL         0.0370
     19 H9         -7.0641   -6.6327   -3.5207 H         1 MOL         0.0370
     20 H10        -5.6940   -7.5332   -4.1761 H         1 MOL         0.0370
     21 H11        -0.7448   -2.4621   -1.5142 H         1 MOL         0.0378
     22 H12        -1.9900   -1.5418   -0.6670 H         1 MOL         0.0378
     23 H13        -4.7305   -7.7727   -1.8894 H         1 MOL         0.0378
     24 H14        -6.0975   -6.9056   -1.1987 H         1 MOL         0.0378
     25 H15        -2.5842   -3.5536    0.6756 H         1 MOL         0.0388
     26 H16        -1.3224   -4.4864   -0.1340 H         1 MOL         0.0388
     27 H17        -5.4444   -4.8729   -2.5057 H         1 MOL         0.0388
     28 H18        -4.1147   -5.7736   -3.2288 H         1 MOL         0.0388
     29 H19        -2.4405   -4.1315   -2.3314 H         1 MOL         0.0381
     30 H20        -3.6981   -3.1704   -1.5611 H         1 MOL         0.0381
     31 H21        -4.3904   -5.1762   -0.2327 H         1 MOL         0.0381
     32 H22        -3.0908   -6.1062   -0.9732 H         1 MOL         0.0381
@<TRIPOS>BOND
     1    1    3 1
     2    2    4 1
     3    3    5 1
     4    4    6 1
     5    5    7 1
     6    6    8 1
     7    7    9 1
     8    8   10 1
     9    9   10 1
    10    1   11 1
    11    1   12 1
    12    1   13 1
    13    2   14 1
    14    2   15 1
    15    2   16 1
    16    3   17 1
    17    3   18 1
    18    4   19 1
    19    4   20 1
    20    5   21 1
    21    5   22 1
    22    6   23 1
    23    6   24 1
    24    7   25 1
    25    7   26 1
    26    8   27 1
    27    8   28 1
    28    9   29 1
    29    9   30 1
    30   10   31 1
    31   10   32 1
