@<TRIPOS>MOLECULE
propyl
   25    25     0     0     0
SMALL
USER_CHARGES

@<TRIPOS>ATOM
      1 C1          3.0260   -0.3390    1.1230 C.ar      1 MOL        -0.0392
      2 C2          1.7370   -2.3500    0.7670 C.ar      1 MOL        -0.0288
      3 C3          1.9470    0.2340    1.7960 C.ar      1 MOL        -0.1754
      4 C4          0.6580   -1.7780    1.4400 C.ar      1 MOL        -0.2353
      5 C5          2.9210   -1.6310    0.6080 C.ar      1 MOL        -0.1738
      6 C6          0.7630   -0.4860    1.9550 C.ar      1 MOL         0.1582
      7 C7          4.0460   -2.2280   -0.0940 C.2       1 MOL         0.6526
      8 C8          5.3270   -6.3740   -2.3610 C.3       1 MOL        -0.0931
      9 C9          4.2760   -5.5690   -1.6180 C.3       1 MOL        -0.0869
     10 C10         4.7890   -4.1910   -1.2290 C.3       1 MOL         0.1417
     11 O1          5.1330   -1.6660   -0.2810 O.2       1 MOL        -0.5490
     12 O2         -0.2900    0.0730    2.6110 O.3       1 MOL        -0.4905
     13 O3          3.7560   -3.4950   -0.5230 O.3       1 MOL        -0.4458
     14 H1          3.9450    0.2310    1.0040 H         1 MOL         0.1610
     15 H2          1.6440   -3.3580    0.3690 H         1 MOL         0.1568
     16 H3          2.0350    1.2410    2.1950 H         1 MOL         0.1582
     17 H4         -0.2630   -2.3430    1.5600 H         1 MOL         0.1400
     18 H5          5.6570   -5.8490   -3.2630 H         1 MOL         0.0371
     19 H6          6.2010   -6.5360   -1.7230 H         1 MOL         0.0371
     20 H7          4.9350   -7.3520   -2.6560 H         1 MOL         0.0394
     21 H8          3.9580   -6.1110   -0.7190 H         1 MOL         0.0524
     22 H9          3.3780   -5.4650   -2.2400 H         1 MOL         0.0521
     23 H10         5.6650   -4.2690   -0.5770 H         1 MOL         0.0529
     24 H11         5.0570   -3.6090   -2.1170 H         1 MOL         0.0537
     25 H12        -1.0360   -0.5460    2.6400 H         1 MOL         0.4243
@<TRIPOS>BOND
     1    1    3 ar
     2    1    5 ar
     3    2    4 ar
     4    2    5 ar
     5    3    6 ar
     6    4    6 ar
     7    5    7 1
     8    6   12 1
     9    7   11 2
    10    7   13 1
    11    8    9 1
    12    9   10 1
    13   10   13 1
    14    1   14 1
    15    2   15 1
    16    3   16 1
    17    4   17 1
    18    8   18 1
    19    8   19 1
    20    8   20 1
    21    9   21 1
    22    9   22 1
    23   10   23 1
    24   10   24 1
    25   12   25 1
