@<TRIPOS>MOLECULE
2_naphthylamine
   20    21     0     0     0
SMALL
USER_CHARGES

@<TRIPOS>ATOM
      1 C1         -0.5710   -2.0558    0.2748 C.ar      1 MOL        -0.1433
      2 C2          0.3374   -1.0322    0.0227 C.ar      1 MOL        -0.1177
      3 C3         -0.1389   -3.3821    0.3036 C.ar      1 MOL        -0.1042
      4 C4          1.6817   -1.3308   -0.2013 C.ar      1 MOL        -0.1309
      5 C5          1.6634   -5.0301    0.1058 C.ar      1 MOL        -0.0851
      6 C6          3.0079   -5.3284   -0.1178 C.ar      1 MOL        -0.1695
      7 C7          3.4839   -2.9787   -0.3987 C.ar      1 MOL        -0.2019
      8 C8          1.2105   -3.7009    0.0804 C.ar      1 MOL        -0.0719
      9 C9          2.1345   -2.6600   -0.1755 C.ar      1 MOL         0.0045
     10 C10         3.9165   -4.3048   -0.3696 C.ar      1 MOL         0.1447
     11 N1          5.2755   -4.6085   -0.5937 N.pl3     1 MOL        -0.8244
     12 H1         -1.6175   -1.8224    0.4484 H         1 MOL         0.1305
     13 H2          0.0003   -0.0000    0.0006 H         1 MOL         0.1297
     14 H3         -0.8671   -4.1662    0.5009 H         1 MOL         0.1294
     15 H4          2.3743   -0.5146   -0.3966 H         1 MOL         0.1309
     16 H5          0.9704   -5.8461    0.3006 H         1 MOL         0.1319
     17 H6          3.3341   -6.3651   -0.0927 H         1 MOL         0.1324
     18 H7          4.2040   -2.1859   -0.5962 H         1 MOL         0.1330
     19 H8          5.5202   -5.5030   -0.9675 H         1 MOL         0.3909
     20 H9          5.9760   -3.9635   -0.2884 H         1 MOL         0.3909
@<TRIPOS>BOND
     1    1    2 ar
     2    1    3 ar
     3    2    4 ar
     4    3    8 ar
     5    4    9 ar
     6    5    6 ar
     7    5    8 ar
     8    6   10 ar
     9    7    9 ar
    10    7   10 ar
    11    8    9 ar
    12   10   11 1
    13    1   12 1
    14    2   13 1
    15    3   14 1
    16    4   15 1
    17    5   16 1
    18    6   17 1
    19    7   18 1
    20   11   19 1
    21   11   20 1
