@<TRIPOS>MOLECULE
34_dimethylphenol
   19    19     0     0     0
SMALL
USER_CHARGES

@<TRIPOS>ATOM
      1 C1          0.8324   -0.3948    0.5751 C.ar      1 MOL        -0.0886
      2 C2          0.8349   -0.2829    1.9655 C.ar      1 MOL        -0.2145
      3 C3          2.9708   -1.4085    2.0522 C.ar      1 MOL        -0.1547
      4 C4          1.8991   -1.0135   -0.0768 C.ar      1 MOL        -0.1040
      5 C5          2.9683   -1.5204    0.6618 C.ar      1 MOL        -0.0341
      6 C6          1.9042   -0.7896    2.7040 C.ar      1 MOL         0.1224
      7 C7          1.8742   -1.1215   -1.5660 C.3       1 MOL        -0.0532
      8 C8          4.1205   -2.1878   -0.0143 C.3       1 MOL        -0.0617
      9 O1          1.9069   -0.6791    4.0605 O.3       1 MOL        -0.5007
     10 H1         -0.0053    0.0032    0.0086 H         1 MOL         0.1317
     11 H2          0.0014    0.2007    2.4674 H         1 MOL         0.1322
     12 H3          3.8030   -1.8028    2.6310 H         1 MOL         0.1492
     13 H4          2.0526   -2.1580   -1.8749 H         1 MOL         0.0408
     14 H5          0.9075   -0.7976   -1.9710 H         1 MOL         0.0408
     15 H6          2.6414   -0.4837   -2.0226 H         1 MOL         0.0408
     16 H7          4.8844   -2.4646    0.7216 H         1 MOL         0.0451
     17 H8          3.7995   -3.0939   -0.5427 H         1 MOL         0.0451
     18 H9          4.5781   -1.5276   -0.7616 H         1 MOL         0.0451
     19 H10         1.2266   -0.0333    4.3252 H         1 MOL         0.4183
@<TRIPOS>BOND
     1    1    2 ar
     2    1    4 ar
     3    2    6 ar
     4    3    5 ar
     5    3    6 ar
     6    4    5 ar
     7    4    7 1
     8    5    8 1
     9    6    9 1
    10    1   10 1
    11    2   11 1
    12    3   12 1
    13    7   13 1
    14    7   14 1
    15    7   15 1
    16    8   16 1
    17    8   17 1
    18    8   18 1
    19    9   19 1
