@<TRIPOS>MOLECULE
24_dimethylpyridine
   17    17     0     0     0
SMALL
USER_CHARGES

@<TRIPOS>ATOM
      1 C1          0.1834   -0.3460    1.0107 C.ar      1 MOL        -0.2553
      2 C2          1.5263   -0.4068    3.0052 C.ar      1 MOL        -0.2537
      3 C3         -0.7036   -1.1995    1.6468 C.ar      1 MOL         0.4021
      4 C4          1.3172    0.0532    1.7098 C.ar      1 MOL        -0.0257
      5 C5          0.5791   -1.2576    3.5520 C.ar      1 MOL         0.4146
      6 C6          2.3044    0.9709    1.0724 C.3       1 MOL        -0.0672
      7 C7          0.7708   -1.7704    4.9402 C.3       1 MOL        -0.1470
      8 N1         -0.5344   -1.6671    2.9040 N.ar      1 MOL        -0.6714
      9 H1         -0.0083   -0.0048   -0.0008 H         1 MOL         0.1419
     10 H2          2.4042   -0.1080    3.5691 H         1 MOL         0.1405
     11 H3         -1.6032   -1.5402    1.1448 H         1 MOL         0.0199
     12 H4          3.3259    0.6047    1.2330 H         1 MOL         0.0483
     13 H5          2.1311    1.0547   -0.0085 H         1 MOL         0.0483
     14 H6          2.2299    1.9856    1.4852 H         1 MOL         0.0483
     15 H7          1.5737   -1.2180    5.4431 H         1 MOL         0.0522
     16 H8         -0.1473   -1.6672    5.5326 H         1 MOL         0.0522
     17 H9          1.0298   -2.8369    4.9379 H         1 MOL         0.0522
@<TRIPOS>BOND
     1    1    3 ar
     2    1    4 ar
     3    2    4 ar
     4    2    5 ar
     5    3    8 ar
     6    4    6 1
     7    5    7 1
     8    5    8 ar
     9    1    9 1
    10    2   10 1
    11    3   11 1
    12    6   12 1
    13    6   13 1
    14    6   14 1
    15    7   15 1
    16    7   16 1
    17    7   17 1
