@<TRIPOS>MOLECULE
SAMPL4_028
   20    19     0     0     0
SMALL
USER_CHARGES

@<TRIPOS>ATOM
      1 C1         -5.6400   -1.3690    2.4780 C.3       1 MOL        -0.1301
      2 C2         -6.2230    0.5710    0.9730 C.3       1 MOL        -0.0914
      3 C3         -6.2440    1.1130   -0.4520 C.3       1 MOL         0.1304
      4 C4         -5.7030   -0.8660    1.0420 C.3       1 MOL         0.1531
      5 N1         -6.7830    3.0580   -1.7110 N.3       1 MOL         0.3792
      6 N2         -4.0490   -2.2490    0.0360 N.3       1 MOL         0.3802
      7 O1         -6.4090    2.3080   -2.6130 O.3       1 MOL        -0.1765
      8 O2         -4.9440   -3.0720    0.2320 O.3       1 MOL        -0.1790
      9 O3         -7.1890    4.2210   -1.7750 O.3       1 MOL        -0.1765
     10 O4         -2.9360   -2.4050   -0.4700 O.3       1 MOL        -0.1790
     11 O5         -6.7220    2.4510   -0.4260 O.3       1 MOL        -0.3530
     12 O6         -4.3990   -0.9430    0.4730 O.3       1 MOL        -0.3610
     13 H1         -4.9970   -0.7330    3.0940 H         1 MOL         0.0640
     14 H2         -5.2610   -2.3960    2.5200 H         1 MOL         0.0640
     15 H3         -6.6420   -1.3860    2.9200 H         1 MOL         0.0640
     16 H4         -7.2330    0.6300    1.3980 H         1 MOL         0.0877
     17 H5         -5.5950    1.2320    1.5840 H         1 MOL         0.0877
     18 H6         -5.2420    1.1130   -0.8910 H         1 MOL         0.0762
     19 H7         -6.9110    0.5180   -1.0850 H         1 MOL         0.0762
     20 H8         -6.3540   -1.5260    0.4590 H         1 MOL         0.0857
@<TRIPOS>BOND
     1    1    4 1
     2    2    3 1
     3    2    4 1
     4    3   11 1
     5    4   12 1
     6    5    7 1
     7    5    9 1
     8    5   11 1
     9    6    8 1
    10    6   10 1
    11    6   12 1
    12    1   13 1
    13    1   14 1
    14    1   15 1
    15    2   16 1
    16    2   17 1
    17    3   18 1
    18    3   19 1
    19    4   20 1
