@<TRIPOS>MOLECULE
2_methylpropene
   12    11     0     0     0
SMALL
USER_CHARGES

@<TRIPOS>ATOM
      1 C1          0.4692   -0.6874    0.6960 C.2       1 MOL        -0.2278
      2 C2          1.1097   -1.7854    0.2679 C.2       1 MOL        -0.1172
      3 C3          1.2141   -2.1252   -1.1893 C.3       1 MOL        -0.0580
      4 C4          1.7622   -2.7443    1.2190 C.3       1 MOL        -0.0580
      5 H1          0.3993   -0.4505    1.7524 H         1 MOL         0.1112
      6 H2          0.0000    0.0000    0.0000 H         1 MOL         0.1112
      7 H3          2.2646   -2.1771   -1.4928 H         1 MOL         0.0398
      8 H4          0.7465   -3.0951   -1.3875 H         1 MOL         0.0398
      9 H5          0.7206   -1.3810   -1.8233 H         1 MOL         0.0398
     10 H6          1.3238   -3.7419    1.1130 H         1 MOL         0.0398
     11 H7          2.8354   -2.8123    1.0128 H         1 MOL         0.0398
     12 H8          1.6420   -2.4362    2.2631 H         1 MOL         0.0398
@<TRIPOS>BOND
     1    1    2 2
     2    2    3 1
     3    2    4 1
     4    1    5 1
     5    1    6 1
     6    3    7 1
     7    3    8 1
     8    3    9 1
     9    4   10 1
    10    4   11 1
    11    4   12 1
