@<TRIPOS>MOLECULE
5-trifluoromethyluracil
   15    15     0     0     0
SMALL
USER_CHARGES

@<TRIPOS>ATOM
      1 C1          1.1620    1.5070    2.5830 C.2       1 MOL         0.1221
      2 C2          0.7830    0.3890    1.9520 C.2       1 MOL        -0.3769
      3 C3          1.5360   -0.8690    2.2310 C.2       1 MOL         0.7360
      4 C4          2.9650    0.4330    3.7940 C.2       1 MOL         0.8049
      5 C5         -0.3530    0.3290    0.9830 C.3       1 MOL         0.7232
      6 N1          2.2040    1.5450    3.4680 N.am      1 MOL        -0.4611
      7 N2          2.5780   -0.7390    3.1410 N.am      1 MOL        -0.5806
      8 O1          1.2400   -1.9280    1.6850 O.2       1 MOL        -0.5756
      9 O2          3.9030    0.4730    4.5900 O.2       1 MOL        -0.6142
     10 F1         -0.9310    1.5400    0.8370 F         1 MOL        -0.2498
     11 F2          0.0660   -0.0760   -0.2350 F         1 MOL        -0.2197
     12 F3         -1.3050   -0.5340    1.3970 F         1 MOL        -0.2196
     13 H1          0.6610    2.4560    2.4290 H         1 MOL         0.1847
     14 H2          2.4250    2.4360    3.9020 H         1 MOL         0.3639
     15 H3          3.1100   -1.5790    3.3520 H         1 MOL         0.3628
@<TRIPOS>BOND
     1    1    2 2
     2    1    6 1
     3    2    3 1
     4    2    5 1
     5    3    7 am
     6    3    8 2
     7    4    6 am
     8    4    7 am
     9    4    9 2
    10    5   10 1
    11    5   11 1
    12    5   12 1
    13    1   13 1
    14    6   14 1
    15    7   15 1
