@<TRIPOS>MOLECULE
1,2,3,4,7,8-hexachlorodibenzo-p-dioxin
   22    24     0     0     0
SMALL
USER_CHARGES

@<TRIPOS>ATOM
      1 C1         -3.1487    0.4152    1.2196 C.ar      1 MOL        -0.1020
      2 C2         -1.4367   -1.5819    0.2693 C.ar      1 MOL        -0.1020
      3 C3         -3.5799   -0.9097    1.1626 C.ar      1 MOL         0.0676
      4 C4         -2.7266   -1.9051    0.6889 C.ar      1 MOL         0.0692
      5 C5         -5.2389   -2.4982    1.5123 C.ar      1 MOL         0.0822
      6 C6         -4.3856   -3.4936    1.0385 C.ar      1 MOL         0.0819
      7 C7         -1.8584    0.7400    0.8000 C.ar      1 MOL         0.0200
      8 C8         -1.0039   -0.2568    0.3257 C.ar      1 MOL         0.0207
      9 C9         -6.5287   -2.8214    1.9320 C.ar      1 MOL         0.0297
     10 C10        -4.8168   -4.8184    0.9815 C.ar      1 MOL         0.0295
     11 C11        -6.9616   -4.1465    1.8755 C.ar      1 MOL         0.0214
     12 C12        -6.1071   -5.1433    1.4010 C.ar      1 MOL         0.0212
     13 O1         -4.8561   -1.1828    1.5855 O.3       1 MOL        -0.2006
     14 O2         -3.1093   -3.2205    0.6157 O.3       1 MOL        -0.2005
     15 Cl1        -1.3753    2.3976    0.8910 Cl        1 MOL        -0.0496
     16 Cl2         0.6055    0.0871   -0.2048 Cl        1 MOL        -0.0499
     17 Cl3        -7.5649   -1.5539    2.5153 Cl        1 MOL        -0.0193
     18 Cl4        -3.7248   -6.0327    0.3864 Cl        1 MOL        -0.0194
     19 Cl5        -8.5737   -4.5509    2.3987 Cl        1 MOL        -0.0271
     20 Cl6        -6.6458   -6.7987    1.3310 Cl        1 MOL        -0.0274
     21 H1         -3.8229    1.1835    1.5908 H         1 MOL         0.1771
     22 H2         -0.7790   -2.3656   -0.0995 H         1 MOL         0.1775
@<TRIPOS>BOND
     1    1    3 ar
     2    1    7 ar
     3    2    4 ar
     4    2    8 ar
     5    3    4 ar
     6    3   13 1
     7    4   14 1
     8    5    6 ar
     9    5    9 ar
    10    5   13 1
    11    6   10 ar
    12    6   14 1
    13    7    8 ar
    14    7   15 1
    15    8   16 1
    16    9   11 ar
    17    9   17 1
    18   10   12 ar
    19   10   18 1
    20   11   12 ar
    21   11   19 1
    22   12   20 1
    23    1   21 1
    24    2   22 1
