@<TRIPOS>MOLECULE
nitroethane
   10     9     0     0     0
SMALL
USER_CHARGES

@<TRIPOS>ATOM
      1 C1         -0.0401    0.6659    0.8691 C.3       1 MOL        -0.1088
      2 C2          0.4809   -0.0186    2.1108 C.3       1 MOL        -0.0733
      3 N1          1.8781   -0.4078    1.8635 N.pl3     1 MOL         0.2272
      4 O1          2.0903   -1.5390    1.3911 O.3       1 MOL        -0.2100
      5 O2          2.7633    0.4263    2.1255 O.2       1 MOL        -0.2100
      6 H1          0.5470    1.5596    0.6301 H         1 MOL         0.0631
      7 H2          0.0000    0.0000   -0.0000 H         1 MOL         0.0631
      8 H3         -1.0808    0.9726    1.0135 H         1 MOL         0.0631
      9 H4         -0.0661   -0.9360    2.3389 H         1 MOL         0.0928
     10 H5          0.4875    0.6452    2.9782 H         1 MOL         0.0928
@<TRIPOS>BOND
     1    1    2 1
     2    2    3 1
     3    3    4 1
     4    3    5 2
     5    1    6 1
     6    1    7 1
     7    1    8 1
     8    2    9 1
     9    2   10 1
