@<TRIPOS>MOLECULE
123_trimethylbenzene
   21    21     0     0     0
SMALL
USER_CHARGES

@<TRIPOS>ATOM
      1 C1          1.8846   -1.0376   -0.1090 C.ar      1 MOL        -0.1286
      2 C2          0.8176   -0.4410    0.5626 C.ar      1 MOL        -0.1319
      3 C3          2.9348   -1.6038    0.6137 C.ar      1 MOL        -0.1319
      4 C4          0.8008   -0.4105    1.9570 C.ar      1 MOL        -0.0651
      5 C5          2.9180   -1.5734    2.0082 C.ar      1 MOL        -0.0651
      6 C6          1.8509   -0.9767    2.6799 C.ar      1 MOL        -0.0662
      7 C7         -0.3535    0.2345    2.6522 C.3       1 MOL        -0.0591
      8 C8          4.0547   -2.1869    2.7585 C.3       1 MOL        -0.0591
      9 C9          1.8327   -0.9442    4.1752 C.3       1 MOL        -0.0610
     10 H1          1.8974   -1.0621   -1.1949 H         1 MOL         0.1294
     11 H2          0.0042   -0.0032   -0.0100 H         1 MOL         0.1292
     12 H3          3.7609   -2.0671    0.0806 H         1 MOL         0.1292
     13 H4         -0.3034    0.0415    3.7299 H         1 MOL         0.0421
     14 H5         -0.3571    1.3194    2.4907 H         1 MOL         0.0421
     15 H6         -1.3087   -0.1483    2.2721 H         1 MOL         0.0421
     16 H7          4.5585   -1.4296    3.3700 H         1 MOL         0.0421
     17 H8          3.7063   -2.9926    3.4161 H         1 MOL         0.0421
     18 H9          4.7888   -2.6286    2.0734 H         1 MOL         0.0421
     19 H10         2.7354   -0.4523    4.5532 H         1 MOL         0.0427
     20 H11         0.9553   -0.4025    4.5470 H         1 MOL         0.0427
     21 H12         1.7843   -1.9576    4.5908 H         1 MOL         0.0427
@<TRIPOS>BOND
     1    1    2 ar
     2    1    3 ar
     3    2    4 ar
     4    3    5 ar
     5    4    6 ar
     6    4    7 1
     7    5    6 ar
     8    5    8 1
     9    6    9 1
    10    1   10 1
    11    2   11 1
    12    3   12 1
    13    7   13 1
    14    7   14 1
    15    7   15 1
    16    8   16 1
    17    8   17 1
    18    8   18 1
    19    9   19 1
    20    9   20 1
    21    9   21 1
