@<TRIPOS>MOLECULE
cyclohepta_135_triene
   15    15     0     0     0
SMALL
USER_CHARGES

@<TRIPOS>ATOM
      1 C1          0.7687    0.7144    0.2904 C.2       1 MOL        -0.1196
      2 C2          2.0427    0.3200    0.1936 C.2       1 MOL        -0.1196
      3 C3          0.2557    1.9766    0.7513 C.2       1 MOL        -0.1339
      4 C4          3.2340    1.0545    0.5248 C.2       1 MOL        -0.1339
      5 C5          0.9097    3.1328    0.9142 C.2       1 MOL        -0.1436
      6 C6          3.3730    2.3701    0.7270 C.2       1 MOL        -0.1436
      7 C7          2.3581    3.4710    0.7397 C.3       1 MOL        -0.0028
      8 H1          0.0002    0.0003   -0.0013 H         1 MOL         0.1196
      9 H2          2.2277   -0.6898   -0.1697 H         1 MOL         0.1196
     10 H3         -0.8170    1.9776    0.9391 H         1 MOL         0.1180
     11 H4          4.1355    0.4447    0.5627 H         1 MOL         0.1180
     12 H5          0.2997    3.9825    1.2229 H         1 MOL         0.1136
     13 H6          4.3910    2.7154    0.9116 H         1 MOL         0.1136
     14 H7          2.4753    4.0728   -0.1691 H         1 MOL         0.0473
     15 H8          2.6250    4.1284    1.5781 H         1 MOL         0.0473
@<TRIPOS>BOND
     1    1    2 2
     2    1    3 1
     3    2    4 1
     4    3    5 2
     5    4    6 2
     6    5    7 1
     7    6    7 1
     8    1    8 1
     9    2    9 1
    10    3   10 1
    11    4   11 1
    12    5   12 1
    13    6   13 1
    14    7   14 1
    15    7   15 1
