@<TRIPOS>MOLECULE
cyclopentane
   15    15     0     0     0
SMALL
USER_CHARGES

@<TRIPOS>ATOM
      1 C1         -0.1641   -1.6619    2.5633 C.3       1 MOL        -0.0803
      2 C2          1.1389   -0.9523    2.8873 C.3       1 MOL        -0.0803
      3 C3         -0.9742   -0.5878    1.8547 C.3       1 MOL        -0.0803
      4 C4          1.4198   -0.1416    1.6308 C.3       1 MOL        -0.0803
      5 C5          0.0480    0.2314    1.0697 C.3       1 MOL        -0.0803
      6 H1          0.0200   -2.5054    1.8877 H         1 MOL         0.0402
      7 H2         -0.6674   -2.0412    3.4571 H         1 MOL         0.0402
      8 H3          1.0030   -0.2834    3.7453 H         1 MOL         0.0402
      9 H4          1.9482   -1.6499    3.1214 H         1 MOL         0.0402
     10 H5         -1.7490   -1.0122    1.2093 H         1 MOL         0.0402
     11 H6         -1.4706    0.0530    2.5934 H         1 MOL         0.0402
     12 H7          2.0345    0.7395    1.8392 H         1 MOL         0.0402
     13 H8          1.9598   -0.7572    0.9014 H         1 MOL         0.0402
     14 H9          0.0002    0.0002   -0.0001 H         1 MOL         0.0402
     15 H10        -0.1501    1.3028    1.1813 H         1 MOL         0.0402
@<TRIPOS>BOND
     1    1    2 1
     2    1    3 1
     3    2    4 1
     4    3    5 1
     5    4    5 1
     6    1    6 1
     7    1    7 1
     8    2    8 1
     9    2    9 1
    10    3   10 1
    11    3   11 1
    12    4   12 1
    13    4   13 1
    14    5   14 1
    15    5   15 1
