@<TRIPOS>MOLECULE
111_trimethoxyethane
   20    19     0     0     0
SMALL
USER_CHARGES

@<TRIPOS>ATOM
      1 C1          0.1455    0.0969    1.0817 C.3       1 MOL        -0.1136
      2 C2          1.6591   -3.1800    1.8405 C.3       1 MOL         0.1351
      3 C3          0.6384   -0.6535    3.8916 C.3       1 MOL         0.1351
      4 C4          2.9431    0.6296    0.5765 C.3       1 MOL         0.1351
      5 C5          1.2767   -0.8256    1.5627 C.3       1 MOL         0.5251
      6 O1          0.7476   -2.1652    1.4376 O.3       1 MOL        -0.4495
      7 O2          1.6624   -0.5239    2.9156 O.3       1 MOL        -0.4495
      8 O3          2.3997   -0.6802    0.6665 O.3       1 MOL        -0.4495
      9 H1          0.3564    1.1473    1.3062 H         1 MOL         0.0605
     10 H2          0.0000   -0.0000    0.0000 H         1 MOL         0.0605
     11 H3         -0.8083   -0.1565    1.5577 H         1 MOL         0.0605
     12 H4          2.6769   -2.7823    1.8286 H         1 MOL         0.0389
     13 H5          1.5814   -4.0318    1.1602 H         1 MOL         0.0389
     14 H6          1.4079   -3.5015    2.8540 H         1 MOL         0.0389
     15 H7          1.0760   -0.9769    4.8393 H         1 MOL         0.0389
     16 H8         -0.1003   -1.3836    3.5512 H         1 MOL         0.0389
     17 H9          0.1533    0.3158    4.0289 H         1 MOL         0.0389
     18 H10         2.3161    1.2409   -0.0772 H         1 MOL         0.0389
     19 H11         3.9597    0.5768    0.1787 H         1 MOL         0.0389
     20 H12         2.9670    1.0740    1.5743 H         1 MOL         0.0389
@<TRIPOS>BOND
     1    1    5 1
     2    2    6 1
     3    3    7 1
     4    4    8 1
     5    5    6 1
     6    5    7 1
     7    5    8 1
     8    1    9 1
     9    1   10 1
    10    1   11 1
    11    2   12 1
    12    2   13 1
    13    2   14 1
    14    3   15 1
    15    3   16 1
    16    3   17 1
    17    4   18 1
    18    4   19 1
    19    4   20 1
