@<TRIPOS>MOLECULE
2_nitropropane
   13    12     0     0     0
SMALL
USER_CHARGES

@<TRIPOS>ATOM
      1 C1         -0.3746   -0.4200    0.9408 C.3       1 MOL        -0.1103
      2 C2          1.3403    0.8518    2.2981 C.3       1 MOL        -0.1103
      3 C3          0.7139   -0.4968    1.9952 C.3       1 MOL        -0.0501
      4 N1          1.7805   -1.3770    1.4723 N.pl3     1 MOL         0.2227
      5 O1          2.0382   -2.4080    2.1128 O.3       1 MOL        -0.2116
      6 O2          2.3347   -1.0336    0.4164 O.2       1 MOL        -0.2116
      7 H1         -1.2012    0.2102    1.2854 H         1 MOL         0.0620
      8 H2          0.0000    0.0000    0.0000 H         1 MOL         0.0620
      9 H3         -0.7802   -1.4136    0.7190 H         1 MOL         0.0620
     10 H4          2.1460    0.7563    3.0349 H         1 MOL         0.0620
     11 H5          0.5932    1.5409    2.7058 H         1 MOL         0.0620
     12 H6          1.7686    1.3118    1.3999 H         1 MOL         0.0620
     13 H7          0.3457   -0.9744    2.9080 H         1 MOL         0.0990
@<TRIPOS>BOND
     1    1    3 1
     2    2    3 1
     3    3    4 1
     4    4    5 1
     5    4    6 2
     6    1    7 1
     7    1    8 1
     8    1    9 1
     9    2   10 1
    10    2   11 1
    11    2   12 1
    12    3   13 1
