@<TRIPOS>MOLECULE
but_1_yne
   10     9     0     0     0
SMALL
USER_CHARGES

@<TRIPOS>ATOM
      1 C1          1.3443   -3.0191    1.4503 C.1       1 MOL        -0.1625
      2 C2          1.3994   -1.8207    1.4971 C.1       1 MOL        -0.1311
      3 C3          1.0319    0.2735    0.2461 C.3       1 MOL        -0.0864
      4 C4          1.4682   -0.3553    1.5586 C.3       1 MOL        -0.0099
      5 H1          1.2950   -4.0821    1.4092 H         1 MOL         0.1629
      6 H2          0.0000    0.0000   -0.0000 H         1 MOL         0.0382
      7 H3          1.6716   -0.0530   -0.5811 H         1 MOL         0.0382
      8 H4          1.0887    1.3648    0.3099 H         1 MOL         0.0382
      9 H5          0.8280    0.0122    2.3683 H         1 MOL         0.0562
     10 H6          2.4923   -0.0416    1.7893 H         1 MOL         0.0562
@<TRIPOS>BOND
     1    1    2 3
     2    2    4 1
     3    3    4 1
     4    1    5 1
     5    3    6 1
     6    3    7 1
     7    3    8 1
     8    4    9 1
     9    4   10 1
