@<TRIPOS>MOLECULE
cyclopentanone
   14    14     0     0     0
SMALL
USER_CHARGES

@<TRIPOS>ATOM
      1 C1         -1.1818   -1.5417    0.9429 C.2       1 MOL         0.5633
      2 C2         -0.1043   -0.4890    0.9707 C.3       1 MOL        -0.1883
      3 C3         -0.7180   -2.8480    1.5333 C.3       1 MOL        -0.1883
      4 C4          1.1263   -1.3137    1.3262 C.3       1 MOL        -0.0809
      5 C5          0.5903   -2.4404    2.1989 C.3       1 MOL        -0.0809
      6 O1         -2.3050   -1.3570    0.4920 O.2       1 MOL        -0.5222
      7 H1         -0.0001    0.0005    0.0004 H         1 MOL         0.0746
      8 H2         -0.3379    0.2392    1.7525 H         1 MOL         0.0746
      9 H3         -1.4385   -3.2367    2.2560 H         1 MOL         0.0746
     10 H4         -0.5492   -3.5641    0.7242 H         1 MOL         0.0746
     11 H5          1.5760   -1.7289    0.4160 H         1 MOL         0.0497
     12 H6          1.8877   -0.7175    1.8372 H         1 MOL         0.0497
     13 H7          0.3964   -2.0673    3.2122 H         1 MOL         0.0497
     14 H8          1.2912   -3.2769    2.2760 H         1 MOL         0.0497
@<TRIPOS>BOND
     1    1    2 1
     2    1    3 1
     3    1    6 2
     4    2    4 1
     5    3    5 1
     6    4    5 1
     7    2    7 1
     8    2    8 1
     9    3    9 1
    10    3   10 1
    11    4   11 1
    12    4   12 1
    13    5   13 1
    14    5   14 1
