@<TRIPOS>MOLECULE
SAMPL4_017
   29    29     0     0     0
SMALL
USER_CHARGES

@<TRIPOS>ATOM
      1 C1          0.5460    0.3820    1.0660 C.2       1 MOL         0.5711
      2 C2          0.9560    0.9450   -0.2790 C.3       1 MOL        -0.1804
      3 C3         -1.2060   -1.0580    0.0290 C.3       1 MOL        -0.0704
      4 C4         -0.8680   -0.4480   -1.3310 C.3       1 MOL        -0.0814
      5 C5         -0.8970   -0.0950    1.1780 C.3       1 MOL        -0.1567
      6 C6          0.6090   -0.0360   -1.4000 C.3       1 MOL        -0.0597
      7 C7          0.9370    0.5700   -2.7630 C.3       1 MOL        -0.0911
      8 C8         -2.6680   -0.7450    2.8360 C.3       1 MOL        -0.0901
      9 C9         -0.6310   -2.1850    2.5440 C.3       1 MOL        -0.0901
     10 C10        -1.1720   -0.7560    2.5250 C.3       1 MOL        -0.0597
     11 O1          1.3190    0.4010    2.0230 O.2       1 MOL        -0.5321
     12 H1          0.4430    1.9040   -0.4120 H         1 MOL         0.0682
     13 H2          2.0340    1.1380   -0.2670 H         1 MOL         0.0682
     14 H3         -2.2680   -1.3320    0.0470 H         1 MOL         0.0512
     15 H4         -0.6340   -1.9870    0.1540 H         1 MOL         0.0512
     16 H5         -1.0880   -1.1790   -2.1180 H         1 MOL         0.0452
     17 H6         -1.5120    0.4220   -1.5130 H         1 MOL         0.0452
     18 H7         -1.5340    0.7950    1.0920 H         1 MOL         0.0677
     19 H8          1.2220   -0.9390   -1.2730 H         1 MOL         0.0547
     20 H9          0.3450    1.4700   -2.9190 H         1 MOL         0.0370
     21 H10         0.7110   -0.1470   -3.5500 H         1 MOL         0.0370
     22 H11         1.9940    0.8270   -2.8080 H         1 MOL         0.0370
     23 H12        -3.2340   -1.3060    2.0850 H         1 MOL         0.0354
     24 H13        -3.0530    0.2800    2.8540 H         1 MOL         0.0354
     25 H14        -2.8650   -1.1940    3.8150 H         1 MOL         0.0354
     26 H15        -1.1160   -2.8040    1.7820 H         1 MOL         0.0354
     27 H16        -0.8020   -2.6530    3.5200 H         1 MOL         0.0354
     28 H17         0.4470   -2.1940    2.3530 H         1 MOL         0.0354
     29 H18        -0.6550   -0.1820    3.3050 H         1 MOL         0.0657
@<TRIPOS>BOND
     1    1    2 1
     2    1    5 1
     3    1   11 2
     4    2    6 1
     5    3    4 1
     6    3    5 1
     7    4    6 1
     8    5   10 1
     9    6    7 1
    10    8   10 1
    11    9   10 1
    12    2   12 1
    13    2   13 1
    14    3   14 1
    15    3   15 1
    16    4   16 1
    17    4   17 1
    18    5   18 1
    19    6   19 1
    20    7   20 1
    21    7   21 1
    22    7   22 1
    23    8   23 1
    24    8   24 1
    25    8   25 1
    26    9   26 1
    27    9   27 1
    28    9   28 1
    29   10   29 1
