@<TRIPOS>MOLECULE
ZINC00901022
   16    16     0     0     0
SMALL
USER_CHARGES

@<TRIPOS>ATOM
      1 C1          0.3700    0.5440   -2.7470 C.3       1 MOL         0.1435
      2 C2          0.0700    1.0590   -1.3700 C.ar      1 MOL        -0.1435
      3 C3         -1.2330    0.9550   -0.8610 C.ar      1 MOL        -0.1500
      4 C4         -1.5420    1.4250    0.4170 C.ar      1 MOL        -0.1500
      5 C5         -0.5520    2.0060    1.2060 C.ar      1 MOL        -0.1500
      6 C6          0.7470    2.1180    0.7170 C.ar      1 MOL        -0.1500
      7 C7          1.0540    1.6480   -0.5620 C.ar      1 MOL         0.0825
      8 O1          2.3520    1.7940   -0.9690 O.3       1 MOL        -0.5325
      9 H1          2.4550    1.4370   -1.8650 H         1 MOL         0.4500
     10 H2         -0.5210    0.1210   -3.2230 H         1 MOL         0.0000
     11 H3          0.7300    1.3570   -3.3860 H         1 MOL         0.0000
     12 H4          1.1260   -0.2460   -2.7010 H         1 MOL         0.0000
     13 H5         -2.0220    0.5040   -1.4590 H         1 MOL         0.1500
     14 H6         -2.5570    1.3360    0.7970 H         1 MOL         0.1500
     15 H7         -0.7930    2.3720    2.2000 H         1 MOL         0.1500
     16 H8          1.5170    2.5720    1.3340 H         1 MOL         0.1500
@<TRIPOS>BOND
     1    1    2 1
     2    1   10 1
     3    1   11 1
     4    1   12 1
     5    2    7 ar
     6    2    3 ar
     7    3    4 ar
     8    3   13 1
     9    4    5 ar
    10    4   14 1
    11    5    6 ar
    12    5   15 1
    13    6    7 ar
    14    6   16 1
    15    7    8 1
    16    8    9 1
