@<TRIPOS>MOLECULE
n_butyl_acetate
   20    19     0     0     0
SMALL
USER_CHARGES

@<TRIPOS>ATOM
      1 C1         -5.1171   -3.7748    0.1296 C.2       1 MOL         0.6303
      2 C2         -6.3469   -3.5924   -0.7073 C.3       1 MOL        -0.1458
      3 C3          0.4039   -1.0521   -0.1122 C.3       1 MOL        -0.0907
      4 C4         -0.5795   -2.0238    0.5201 C.3       1 MOL        -0.0766
      5 C5         -1.9307   -1.9925   -0.1885 C.3       1 MOL        -0.0915
      6 C6         -2.9047   -2.9950    0.4140 C.3       1 MOL         0.1417
      7 O1         -5.0296   -4.5713    1.0543 O.2       1 MOL        -0.5436
      8 O2         -4.1328   -2.9264   -0.2974 O.3       1 MOL        -0.4469
      9 H1         -6.1244   -3.8309   -1.7503 H         1 MOL         0.0743
     10 H2         -6.7091   -2.5653   -0.6155 H         1 MOL         0.0743
     11 H3         -7.1297   -4.2699   -0.3541 H         1 MOL         0.0743
     12 H4          0.5784   -1.2994   -1.1642 H         1 MOL         0.0332
     13 H5          0.0299   -0.0247   -0.0580 H         1 MOL         0.0332
     14 H6          1.3649   -1.0917    0.4100 H         1 MOL         0.0332
     15 H7         -0.1611   -3.0362    0.4794 H         1 MOL         0.0418
     16 H8         -0.7076   -1.7680    1.5784 H         1 MOL         0.0418
     17 H9         -2.3650   -0.9865   -0.1342 H         1 MOL         0.0530
     18 H10        -1.8040   -2.2065   -1.2572 H         1 MOL         0.0530
     19 H11        -2.5139   -4.0145    0.3363 H         1 MOL         0.0555
     20 H12        -3.0991   -2.7668    1.4668 H         1 MOL         0.0555
@<TRIPOS>BOND
     1    1    2 1
     2    1    7 2
     3    1    8 1
     4    3    4 1
     5    4    5 1
     6    5    6 1
     7    6    8 1
     8    2    9 1
     9    2   10 1
    10    2   11 1
    11    3   12 1
    12    3   13 1
    13    3   14 1
    14    4   15 1
    15    4   16 1
    16    5   17 1
    17    5   18 1
    18    6   19 1
    19    6   20 1
