@<TRIPOS>MOLECULE
s61
   14    13     0     0     0
SMALL
USER_CHARGES

@<TRIPOS>ATOM
      1 H1         -1.7780   -0.4710   -0.0910 H         1 MOL         0.0322
      2 C1         -1.9780    0.0030   -1.0330 C.3       1 MOL        -0.0926
      3 H2         -1.0410    0.3740   -1.4610 H         1 MOL         0.0321
      4 H3         -2.5990    0.8750   -0.8330 H         1 MOL         0.0322
      5 C2         -2.6860   -0.9260   -1.9960 C.3       1 MOL        -0.0804
      6 H4         -2.0270   -1.7840   -2.2110 H         1 MOL         0.0382
      7 H5         -2.8610   -0.4360   -2.9490 H         1 MOL         0.0382
      8 C3         -4.0040   -1.4420   -1.4240 C.3       1 MOL        -0.0804
      9 H6         -3.8030   -1.9500   -0.4810 H         1 MOL         0.0382
     10 C4         -4.7040   -2.3870   -2.3750 C.3       1 MOL        -0.0926
     11 H7         -4.0860   -3.2500   -2.5790 H         1 MOL         0.0322
     12 H8         -5.6570   -2.7670   -1.9630 H         1 MOL         0.0321
     13 H9         -4.9210   -1.9050   -3.3530 H         1 MOL         0.0322
     14 H10        -4.6720   -0.5830   -1.2210 H         1 MOL         0.0382
@<TRIPOS>BOND
     1    1    2 1
     2    2    3 1
     3    2    4 1
     4    2    5 1
     5    5    6 1
     6    5    7 1
     7    5    8 1
     8    8    9 1
     9    8   10 1
    10    8   14 1
    11   10   11 1
    12   10   12 1
    13   10   13 1
