@<TRIPOS>MOLECULE
diisopropylamine
   22    21     0     0     0
SMALL
USER_CHARGES

@<TRIPOS>ATOM
      1 C1          1.5223    0.8128    2.3475 C.3       1 MOL        -0.0983
      2 C2          0.2123   -1.1982    3.1014 C.3       1 MOL        -0.0983
      3 C3          1.4936   -0.5319   -0.8801 C.3       1 MOL        -0.0983
      4 C4          3.6370   -1.7246   -0.3216 C.3       1 MOL        -0.0983
      5 C5          0.8957   -0.5123    1.9227 C.3       1 MOL         0.1795
      6 C6          2.5397   -0.8011    0.1980 C.3       1 MOL         0.1795
      7 N1          1.9159   -1.4005    1.3674 N.3       1 MOL        -0.8299
      8 H1          0.7592    1.4900    2.7463 H         1 MOL         0.0364
      9 H2          2.2826    0.6690    3.1236 H         1 MOL         0.0364
     10 H3          1.9979    1.3129    1.4966 H         1 MOL         0.0364
     11 H4         -0.2487   -2.1428    2.7921 H         1 MOL         0.0364
     12 H5         -0.5790   -0.5619    3.5121 H         1 MOL         0.0364
     13 H6          0.9210   -1.4160    3.9086 H         1 MOL         0.0364
     14 H7          1.9545   -0.0623   -1.7560 H         1 MOL         0.0364
     15 H8          1.0084   -1.4571   -1.2113 H         1 MOL         0.0364
     16 H9          0.7152    0.1452   -0.5116 H         1 MOL         0.0364
     17 H10         4.3944   -1.9062    0.4491 H         1 MOL         0.0364
     18 H11         4.1423   -1.2762   -1.1838 H         1 MOL         0.0364
     19 H12         3.2342   -2.6944   -0.6352 H         1 MOL         0.0364
     20 H13         0.1472   -0.3186    1.1462 H         1 MOL         0.0343
     21 H14         2.9933    0.1500    0.4983 H         1 MOL         0.0343
     22 H15         2.6238   -1.5747    2.0777 H         1 MOL         0.3583
@<TRIPOS>BOND
     1    1    5 1
     2    2    5 1
     3    3    6 1
     4    4    6 1
     5    5    7 1
     6    6    7 1
     7    1    8 1
     8    1    9 1
     9    1   10 1
    10    2   11 1
    11    2   12 1
    12    2   13 1
    13    3   14 1
    14    3   15 1
    15    3   16 1
    16    4   17 1
    17    4   18 1
    18    4   19 1
    19    5   20 1
    20    6   21 1
    21    7   22 1
