@<TRIPOS>MOLECULE
phthalimide
   16    17     0     0     0
SMALL
USER_CHARGES

@<TRIPOS>ATOM
      1 C1         -0.4090   -0.9490   -1.8990 C.ar      1 MOL        -0.1173
      2 C2         -0.1120   -0.9480   -0.5200 C.ar      1 MOL        -0.1180
      3 C3         -0.5590   -2.1490   -2.6010 C.ar      1 MOL        -0.0620
      4 C4          0.0410   -2.1460    0.1840 C.ar      1 MOL        -0.0611
      5 C5         -0.4040   -3.3180   -1.8860 C.ar      1 MOL        -0.1406
      6 C6         -0.1120   -3.3170   -0.5290 C.ar      1 MOL        -0.1402
      7 C7         -0.4960   -4.7100   -2.3260 C.2       1 MOL         0.7227
      8 C8         -0.0150   -4.7070   -0.0860 C.2       1 MOL         0.7232
      9 N1         -0.2550   -5.4680   -1.2060 N.am      1 MOL        -0.6235
     10 O1         -0.7390   -5.0650   -3.4640 O.2       1 MOL        -0.5701
     11 O2          0.2310   -5.0600    1.0520 O.2       1 MOL        -0.5700
     12 H1         -0.5220   -0.0030   -2.4210 H         1 MOL         0.1440
     13 H2          0.0000   -0.0000   -0.0000 H         1 MOL         0.1437
     14 H3         -0.7870   -2.1500   -3.6600 H         1 MOL         0.1605
     15 H4          0.2690   -2.1440    1.2440 H         1 MOL         0.1603
     16 H5         -0.2530   -6.4820   -1.2050 H         1 MOL         0.3484
@<TRIPOS>BOND
     1    1    2 ar
     2    1    3 ar
     3    2    4 ar
     4    3    5 ar
     5    4    6 ar
     6    5    6 ar
     7    5    7 1
     8    6    8 1
     9    7    9 am
    10    7   10 2
    11    8    9 am
    12    8   11 2
    13    1   12 1
    14    2   13 1
    15    3   14 1
    16    4   15 1
    17    9   16 1
