@<TRIPOS>MOLECULE
pyrene
   26    29     0     0     0
SMALL
USER_CHARGES

@<TRIPOS>ATOM
      1 C1          5.0322    4.9314    4.0194 C.ar      1 MOL        -0.1273
      2 C2          0.6739    0.6604    0.5383 C.ar      1 MOL        -0.1273
      3 C3          3.8665    4.4770    4.6339 C.ar      1 MOL        -0.1139
      4 C4          5.3358    4.5408    2.7163 C.ar      1 MOL        -0.1139
      5 C5          0.3704    1.0508    1.8415 C.ar      1 MOL        -0.1139
      6 C6          1.8395    1.1148   -0.0764 C.ar      1 MOL        -0.1139
      7 C7          1.8096    3.1560    4.5523 C.ar      1 MOL        -0.1089
      8 C8          4.7629    3.2844    0.6973 C.ar      1 MOL        -0.1089
      9 C9          0.9434    2.3071    3.8604 C.ar      1 MOL        -0.1089
     10 C10         3.8966    2.4356    0.0054 C.ar      1 MOL        -0.1089
     11 C11         2.9864    3.6238    3.9523 C.ar      1 MOL        -0.0390
     12 C12         4.4760    3.6886    2.0081 C.ar      1 MOL        -0.0390
     13 C13         1.2303    1.9029    2.5497 C.ar      1 MOL        -0.0390
     14 C14         2.7198    1.9677    0.6053 C.ar      1 MOL        -0.0390
     15 C15         3.2928    3.2263    2.6300 C.ar      1 MOL        -0.0154
     16 C16         2.4137    2.3648    1.9278 C.ar      1 MOL        -0.0154
     17 H1          5.7053    5.5922    4.5581 H         1 MOL         0.1330
     18 H2          0.0005    0.0001   -0.0009 H         1 MOL         0.1330
     19 H3          3.6512    4.7959    5.6516 H         1 MOL         0.1336
     20 H4          6.2517    4.9089    2.2588 H         1 MOL         0.1336
     21 H5         -0.5454    0.6828    2.2993 H         1 MOL         0.1336
     22 H6          2.0541    0.7964   -1.0944 H         1 MOL         0.1336
     23 H7          1.5529    3.4483    5.5686 H         1 MOL         0.1330
     24 H8          5.6670    3.6273    0.1982 H         1 MOL         0.1330
     25 H9          0.0386    1.9641    4.3585 H         1 MOL         0.1330
     26 H10         4.1524    2.1433   -1.0111 H         1 MOL         0.1330
@<TRIPOS>BOND
     1    1    3 ar
     2    1    4 ar
     3    2    5 ar
     4    2    6 ar
     5    3   11 ar
     6    4   12 ar
     7    5   13 ar
     8    6   14 ar
     9    7    9 ar
    10    7   11 ar
    11    8   10 ar
    12    8   12 ar
    13    9   13 ar
    14   10   14 ar
    15   11   15 ar
    16   12   15 ar
    17   13   16 ar
    18   14   16 ar
    19   15   16 ar
    20    1   17 1
    21    2   18 1
    22    3   19 1
    23    4   20 1
    24    5   21 1
    25    6   22 1
    26    7   23 1
    27    8   24 1
    28    9   25 1
    29   10   26 1
