@<TRIPOS>MOLECULE
methyl_propanoate
   14    13     0     0     0
SMALL
USER_CHARGES

@<TRIPOS>ATOM
      1 C1         -2.0715    1.2977    2.4497 C.2       1 MOL         0.6268
      2 C2         -0.8816    0.5302    0.3734 C.3       1 MOL        -0.0893
      3 C3         -3.0831    1.9316    4.4926 C.3       1 MOL         0.1288
      4 C4         -0.8823    0.5514    1.8920 C.3       1 MOL        -0.1242
      5 O1         -2.9385    1.8436    1.7813 O.2       1 MOL        -0.5397
      6 O2         -2.0159    1.2612    3.8143 O.3       1 MOL        -0.4423
      7 H1         -0.8507    1.5461   -0.0343 H         1 MOL         0.0465
      8 H2         -0.0095   -0.0152    0.0001 H         1 MOL         0.0465
      9 H3         -1.7823    0.0419   -0.0133 H         1 MOL         0.0465
     10 H4         -2.8527    1.9992    5.5586 H         1 MOL         0.0497
     11 H5         -4.0143    1.3789    4.3445 H         1 MOL         0.0497
     12 H6         -3.1896    2.9379    4.0806 H         1 MOL         0.0497
     13 H7          0.0313    1.0393    2.2480 H         1 MOL         0.0757
     14 H8         -0.9104   -0.4767    2.2684 H         1 MOL         0.0757
@<TRIPOS>BOND
     1    1    4 1
     2    1    5 2
     3    1    6 1
     4    2    4 1
     5    3    6 1
     6    2    7 1
     7    2    8 1
     8    2    9 1
     9    3   10 1
    10    3   11 1
    11    3   12 1
    12    4   13 1
    13    4   14 1
