@<TRIPOS>MOLECULE
methyl_p_nitrobenzoate
   20    20     0     0     0
SMALL
USER_CHARGES

@<TRIPOS>ATOM
      1 C1          0.8178   -0.4385    0.5644 C.ar      1 MOL        -0.0808
      2 C2          2.9371   -1.5972    0.6197 C.ar      1 MOL        -0.0808
      3 C3          0.7994   -0.4058    1.9588 C.ar      1 MOL        -0.0889
      4 C4          2.9185   -1.5646    2.0141 C.ar      1 MOL        -0.0889
      5 C5          1.8867   -1.0341   -0.1051 C.ar      1 MOL        -0.0955
      6 C6          1.8497   -0.9689    2.6836 C.ar      1 MOL        -0.1403
      7 C7          1.9062   -1.0665   -1.5589 C.2       1 MOL         0.6386
      8 C8          3.1650   -1.7814   -3.4554 C.3       1 MOL         0.1307
      9 N1          1.8315   -0.9342    4.1028 N.pl3     1 MOL         0.3077
     10 O1          1.0203   -0.5917   -2.2819 O.2       1 MOL        -0.5273
     11 O2          0.8613   -0.3922    4.6856 O.3       1 MOL        -0.1975
     12 O3          2.7860   -1.4467    4.7362 O.2       1 MOL        -0.1975
     13 O4          3.0293   -1.6875   -2.0333 O.3       1 MOL        -0.4371
     14 H1         -0.0054    0.0042    0.0093 H         1 MOL         0.1721
     15 H2          3.7740   -2.0650    0.1074 H         1 MOL         0.1721
     16 H3         -0.0401    0.0611    2.4678 H         1 MOL         0.1743
     17 H4          3.7443   -2.0061    2.5669 H         1 MOL         0.1743
     18 H5          4.0611   -2.3570   -3.6995 H         1 MOL         0.0549
     19 H6          3.2360   -0.7779   -3.8826 H         1 MOL         0.0549
     20 H7          2.2870   -2.2877   -3.8636 H         1 MOL         0.0549
@<TRIPOS>BOND
     1    1    3 ar
     2    1    5 ar
     3    2    4 ar
     4    2    5 ar
     5    3    6 ar
     6    4    6 ar
     7    5    7 1
     8    6    9 1
     9    7   10 2
    10    7   13 1
    11    8   13 1
    12    9   11 1
    13    9   12 2
    14    1   14 1
    15    2   15 1
    16    3   16 1
    17    4   17 1
    18    8   18 1
    19    8   19 1
    20    8   20 1
