@<TRIPOS>MOLECULE
CUP08003_AM1BCC_v1_0
   17    16     0     0     0
SMALL
USER_CHARGES

@<TRIPOS>ATOM
      1 C1          0.3919   -1.0444   -0.1075 C.3       1 MOL        -0.0908
      2 C2         -0.5796   -2.0367    0.5115 C.3       1 MOL        -0.0761
      3 C3         -1.9298   -2.0156   -0.1999 C.3       1 MOL        -0.0860
      4 C4         -2.9107   -3.0083    0.4202 C.3       1 MOL         0.1358
      5 N1         -5.1227   -3.8054    0.1899 N.pl3     1 MOL         0.3775
      6 O1         -6.1810   -3.7321   -0.4315 O.3       1 MOL        -0.1846
      7 O2         -4.8161   -4.5182    1.1470 O.2       1 MOL        -0.1846
      8 O3         -4.1350   -2.9198   -0.3035 O.3       1 MOL        -0.3513
      9 H1          0.0021   -0.0232   -0.0463 H         1 MOL         0.0379
     10 H2          1.3509   -1.0735    0.4190 H         1 MOL         0.0379
     11 H3          0.5757   -1.2804   -1.1606 H         1 MOL         0.0379
     12 H4         -0.1476   -3.0429    0.4604 H         1 MOL         0.0433
     13 H5         -0.7135   -1.7949    1.5723 H         1 MOL         0.0433
     14 H6         -2.3622   -1.0077   -0.1636 H         1 MOL         0.0635
     15 H7         -1.8022   -2.2490   -1.2645 H         1 MOL         0.0635
     16 H8         -2.4982   -4.0220    0.3443 H         1 MOL         0.0665
     17 H9         -3.0736   -2.7482    1.4734 H         1 MOL         0.0665
@<TRIPOS>BOND
     1    1    2 1
     2    2    3 1
     3    3    4 1
     4    4    8 1
     5    5    6 1
     6    5    7 2
     7    5    8 1
     8    1    9 1
     9    1   10 1
    10    1   11 1
    11    2   12 1
    12    2   13 1
    13    3   14 1
    14    3   15 1
    15    4   16 1
    16    4   17 1
