@<TRIPOS>MOLECULE
res
   12    11     0     0     0
SMALL
USER_CHARGES

@<TRIPOS>ATOM
      1 H1         -1.0220   -0.3780    0.0150 H         1 MOL         0.0670
      2 C1         -0.0170   -0.0010   -0.0000 C.3       1 MOL         0.1270
      3 C2         -0.0170    1.5240   -0.0030 C.3       1 MOL         0.5784
      4 F1          1.2530    2.0400    0.0110 F         1 MOL        -0.2276
      5 F2         -0.6470    2.0200   -1.0950 F         1 MOL        -0.2380
      6 F3         -0.6610    1.9860    1.1040 F         1 MOL        -0.2481
      7 C3          0.7230   -0.5620   -1.2130 C.3       1 MOL        -0.1015
      8 H2          0.2580   -0.2090   -2.1420 H         1 MOL         0.0585
      9 H3          0.7380   -1.6380   -1.2020 H         1 MOL         0.0664
     10 H4          1.7790   -0.2260   -1.2360 H         1 MOL         0.0698
     11 O1          0.6450   -0.4970    1.1720 O.3       1 MOL        -0.5707
     12 H5          0.1880   -0.1680    1.9520 H         1 MOL         0.4188
@<TRIPOS>BOND
     1    1    2 1
     2    2    3 1
     3    2    7 1
     4    2   11 1
     5    3    4 1
     6    3    5 1
     7    3    6 1
     8    7    8 1
     9    7    9 1
    10    7   10 1
    11   11   12 1
