@<TRIPOS>MOLECULE
CUP08021_AM1BCC_v1_0
    7     6     0     0     0
SMALL
USER_CHARGES

@<TRIPOS>ATOM
      1 C1          1.4276   -0.1419    0.4900 C.3       1 MOL         0.1851
      2 N1         -0.0217    0.0040   -0.0075 N.pl3     1 MOL         0.2318
      3 O1         -0.4787   -0.9009   -0.7312 O.3       1 MOL        -0.1474
      4 O2         -0.6805    1.0044    0.3260 O.2       1 MOL        -0.1474
      5 Cl1         1.4816   -1.6291    1.4529 Cl        1 MOL        -0.0407
      6 Cl2         2.4512   -0.2343   -0.9545 Cl        1 MOL        -0.0407
      7 Cl3         1.8774    1.2600    1.4804 Cl        1 MOL        -0.0407
@<TRIPOS>BOND
     1    1    2 1
     2    1    5 1
     3    1    6 1
     4    1    7 1
     5    2    3 1
     6    2    4 2
