@<TRIPOS>MOLECULE
2_methylbutan_2_ol
   18    17     0     0     0
SMALL
USER_CHARGES

@<TRIPOS>ATOM
      1 C1         -0.6454    0.3354    0.8029 C.3       1 MOL        -0.0889
      2 C2         -2.1689   -0.4444   -1.7717 C.3       1 MOL        -0.1201
      3 C3         -4.0814    0.9472   -0.9518 C.3       1 MOL        -0.1201
      4 C4         -1.8896    1.0450    0.2809 C.3       1 MOL        -0.0638
      5 C5         -2.8429    0.1483   -0.5334 C.3       1 MOL         0.1499
      6 O1         -3.2783   -0.9433    0.2800 O.3       1 MOL        -0.6029
      7 H1         -0.0640    1.0174    1.4322 H         1 MOL         0.0356
      8 H2          0.0034    0.0104   -0.0154 H         1 MOL         0.0356
      9 H3         -0.9067   -0.5378    1.4083 H         1 MOL         0.0356
     10 H4         -1.7578    0.3365   -2.4194 H         1 MOL         0.0408
     11 H5         -1.3642   -1.1352   -1.4985 H         1 MOL         0.0408
     12 H6         -2.8836   -1.0357   -2.3565 H         1 MOL         0.0408
     13 H7         -3.8184    1.7856   -1.6050 H         1 MOL         0.0408
     14 H8         -4.7993    0.3077   -1.4779 H         1 MOL         0.0408
     15 H9         -4.6069    1.3427   -0.0750 H         1 MOL         0.0408
     16 H10        -1.5798    1.9073   -0.3223 H         1 MOL         0.0479
     17 H11        -2.4272    1.4407    1.1525 H         1 MOL         0.0479
     18 H12        -4.2433   -0.9735    0.2012 H         1 MOL         0.3985
@<TRIPOS>BOND
     1    1    4 1
     2    2    5 1
     3    3    5 1
     4    4    5 1
     5    5    6 1
     6    1    7 1
     7    1    8 1
     8    1    9 1
     9    2   10 1
    10    2   11 1
    11    2   12 1
    12    3   13 1
    13    3   14 1
    14    3   15 1
    15    4   16 1
    16    4   17 1
    17    6   18 1
