@<TRIPOS>MOLECULE
octanal
   25    24     0     0     0
SMALL
USER_CHARGES

@<TRIPOS>ATOM
      1 C1         -2.3564    7.9468    3.6756 C.2       1 MOL         0.5607
      2 C2         -0.8549   -0.2439    0.5419 C.3       1 MOL        -0.0899
      3 C3         -1.4534    6.7620    3.4267 C.3       1 MOL        -0.1986
      4 C4         -1.7807    0.9400    0.7718 C.3       1 MOL        -0.0782
      5 C5         -2.1478    5.6525    2.6422 C.3       1 MOL        -0.0723
      6 C6         -1.0725    2.0677    1.5223 C.3       1 MOL        -0.0767
      7 C7         -1.2756    4.4101    2.4444 C.3       1 MOL        -0.0794
      8 C8         -1.9972    3.2706    1.7215 C.3       1 MOL        -0.0761
      9 O1         -3.5292    8.0186    3.3244 O.2       1 MOL        -0.5241
     10 H1         -1.8816    8.7882    4.2095 H         1 MOL        -0.0077
     11 H2          0.0159    0.0489   -0.0533 H         1 MOL         0.0318
     12 H3         -1.3820   -1.0384    0.0046 H         1 MOL         0.0318
     13 H4         -0.4995   -0.6545    1.4924 H         1 MOL         0.0318
     14 H5         -1.1246    6.3906    4.4033 H         1 MOL         0.0695
     15 H6         -0.5770    7.1346    2.8875 H         1 MOL         0.0695
     16 H7         -2.6564    0.6065    1.3406 H         1 MOL         0.0383
     17 H8         -2.1426    1.3065   -0.1959 H         1 MOL         0.0383
     18 H9         -2.4741    6.0348    1.6670 H         1 MOL         0.0452
     19 H10        -3.0591    5.3506    3.1741 H         1 MOL         0.0452
     20 H11        -0.7303    1.7010    2.4979 H         1 MOL         0.0388
     21 H12        -0.1815    2.3783    0.9629 H         1 MOL         0.0388
     22 H13        -0.3672    4.6825    1.8933 H         1 MOL         0.0423
     23 H14        -0.9520    4.0592    3.4323 H         1 MOL         0.0423
     24 H15        -2.8765    2.9654    2.3014 H         1 MOL         0.0394
     25 H16        -2.3547    3.6128    0.7439 H         1 MOL         0.0394
@<TRIPOS>BOND
     1    1    3 1
     2    1    9 2
     3    2    4 1
     4    3    5 1
     5    4    6 1
     6    5    7 1
     7    6    8 1
     8    7    8 1
     9    1   10 1
    10    2   11 1
    11    2   12 1
    12    2   13 1
    13    3   14 1
    14    3   15 1
    15    4   16 1
    16    4   17 1
    17    5   18 1
    18    5   19 1
    19    6   20 1
    20    6   21 1
    21    7   22 1
    22    7   23 1
    23    8   24 1
    24    8   25 1
