@<TRIPOS>MOLECULE
n_pentylbenzene
   27    27     0     0     0
SMALL
USER_CHARGES

@<TRIPOS>ATOM
      1 C1          1.2838   -3.6910   -7.1144 C.ar      1 MOL        -0.1337
      2 C2          2.2260   -3.1747   -6.2251 C.ar      1 MOL        -0.1283
      3 C3          0.2659   -2.8729   -7.6048 C.ar      1 MOL        -0.1283
      4 C4          2.1504   -1.8404   -5.8258 C.ar      1 MOL        -0.1282
      5 C5          0.1903   -1.5385   -7.2057 C.ar      1 MOL        -0.1282
      6 C6          1.1335   -1.0380   -6.3209 C.ar      1 MOL        -0.0661
      7 C7         -0.9742    3.7507   -2.6542 C.3       1 MOL        -0.0898
      8 C8          1.0518    0.4046   -5.8890 C.3       1 MOL        -0.0453
      9 C9         -0.8062    2.2828   -3.0127 C.3       1 MOL        -0.0771
     10 C10         0.2022    0.6278   -4.6327 C.3       1 MOL        -0.0719
     11 C11         0.0690    2.1061   -4.2541 C.3       1 MOL        -0.0780
     12 H1          1.3425   -4.7300   -7.4252 H         1 MOL         0.1299
     13 H2          3.0184   -3.8118   -5.8431 H         1 MOL         0.1297
     14 H3         -0.4677   -3.2752   -8.2972 H         1 MOL         0.1297
     15 H4          2.8889   -1.4468   -5.1323 H         1 MOL         0.1304
     16 H5         -0.6061   -0.9085   -7.5929 H         1 MOL         0.1304
     17 H6         -1.4498    4.3020   -3.4717 H         1 MOL         0.0317
     18 H7         -1.6027    3.8541   -1.7641 H         1 MOL         0.0317
     19 H8         -0.0063    4.2165   -2.4427 H         1 MOL         0.0317
     20 H9          2.0593    0.8099   -5.7312 H         1 MOL         0.0461
     21 H10         0.6256    0.9855   -6.7172 H         1 MOL         0.0461
     22 H11        -0.3588    1.7539   -2.1633 H         1 MOL         0.0368
     23 H12        -1.7939    1.8406   -3.1871 H         1 MOL         0.0368
     24 H13         0.6181    0.0673   -3.7866 H         1 MOL         0.0414
     25 H14        -0.7981    0.2183   -4.8209 H         1 MOL         0.0414
     26 H15         1.0590    2.5346   -4.0597 H         1 MOL         0.0403
     27 H16        -0.3670    2.6627   -5.0926 H         1 MOL         0.0403
@<TRIPOS>BOND
     1    1    2 ar
     2    1    3 ar
     3    2    4 ar
     4    3    5 ar
     5    4    6 ar
     6    5    6 ar
     7    6    8 1
     8    7    9 1
     9    8   10 1
    10    9   11 1
    11   10   11 1
    12    1   12 1
    13    2   13 1
    14    3   14 1
    15    4   15 1
    16    5   16 1
    17    7   17 1
    18    7   18 1
    19    7   19 1
    20    8   20 1
    21    8   21 1
    22    9   22 1
    23    9   23 1
    24   10   24 1
    25   10   25 1
    26   11   26 1
    27   11   27 1
