@<TRIPOS>MOLECULE
n_nonane
   29    28     0     0     0
SMALL
USER_CHARGES

@<TRIPOS>ATOM
      1 C1          0.5781   -1.9172   -1.3095 C.3       1 MOL        -0.0895
      2 C2          6.5713   -5.1293    6.1895 C.3       1 MOL        -0.0895
      3 C3          0.8597   -1.8772    0.1844 C.3       1 MOL        -0.0774
      4 C4          5.3769   -4.2632    5.8226 C.3       1 MOL        -0.0774
      5 C5          2.0367   -2.7584    0.6084 C.3       1 MOL        -0.0764
      6 C6          5.0788   -4.3249    4.3248 C.3       1 MOL        -0.0764
      7 C7          2.3336   -2.6942    2.1083 C.3       1 MOL        -0.0766
      8 C8          3.8560   -3.4790    3.9661 C.3       1 MOL        -0.0766
      9 C9          3.5368   -3.5671    2.4727 C.3       1 MOL        -0.0767
     10 H1          0.4344   -2.9458   -1.6555 H         1 MOL         0.0314
     11 H2         -0.3332   -1.3537   -1.5347 H         1 MOL         0.0314
     12 H3          1.3940   -1.4687   -1.8838 H         1 MOL         0.0314
     13 H4          6.7675   -5.0683    7.2644 H         1 MOL         0.0314
     14 H5          7.4716   -4.8004    5.6606 H         1 MOL         0.0314
     15 H6          6.3881   -6.1784    5.9365 H         1 MOL         0.0314
     16 H7          1.0381   -0.8411    0.4945 H         1 MOL         0.0369
     17 H8         -0.0369   -2.2172    0.7166 H         1 MOL         0.0369
     18 H9          5.5796   -3.2275    6.1195 H         1 MOL         0.0369
     19 H10         4.5014   -4.5985    6.3909 H         1 MOL         0.0369
     20 H11         1.8051   -3.7946    0.3325 H         1 MOL         0.0376
     21 H12         2.9315   -2.4734    0.0415 H         1 MOL         0.0376
     22 H13         5.9502   -3.9690    3.7618 H         1 MOL         0.0376
     23 H14         4.9054   -5.3663    4.0272 H         1 MOL         0.0376
     24 H15         1.4539   -3.0278    2.6721 H         1 MOL         0.0385
     25 H16         2.5384   -1.6599    2.4065 H         1 MOL         0.0385
     26 H17         4.0389   -2.4331    4.2415 H         1 MOL         0.0385
     27 H18         2.9904   -3.8196    4.5474 H         1 MOL         0.0385
     28 H19         3.3298   -4.6098    2.2026 H         1 MOL         0.0382
     29 H20         4.4104   -3.2491    1.8906 H         1 MOL         0.0382
@<TRIPOS>BOND
     1    1    3 1
     2    2    4 1
     3    3    5 1
     4    4    6 1
     5    5    7 1
     6    6    8 1
     7    7    9 1
     8    8    9 1
     9    1   10 1
    10    1   11 1
    11    1   12 1
    12    2   13 1
    13    2   14 1
    14    2   15 1
    15    3   16 1
    16    3   17 1
    17    4   18 1
    18    4   19 1
    19    5   20 1
    20    5   21 1
    21    6   22 1
    22    6   23 1
    23    7   24 1
    24    7   25 1
    25    8   26 1
    26    8   27 1
    27    9   28 1
    28    9   29 1
