@<TRIPOS>MOLECULE
11_dichloroethene
    6     5     0     0     0
SMALL
USER_CHARGES

@<TRIPOS>ATOM
      1 C1         -0.5468   -0.2635   -0.8997 C.2       1 MOL        -0.2062
      2 C2         -0.9360   -1.5194   -1.1376 C.2       1 MOL         0.0740
      3 Cl1        -0.5836   -2.7829   -0.0179 Cl        1 MOL        -0.0763
      4 Cl2        -1.8050   -1.9208   -2.5723 Cl        1 MOL        -0.0763
      5 H1         -0.7632    0.5391   -1.5975 H         1 MOL         0.1424
      6 H2          0.0000    0.0000    0.0000 H         1 MOL         0.1424
@<TRIPOS>BOND
     1    1    2 2
     2    2    3 1
     3    2    4 1
     4    1    5 1
     5    1    6 1
