@<TRIPOS>MOLECULE
ZINC01597767
    9     9     0     0     0
SMALL
USER_CHARGES

@<TRIPOS>ATOM
      1 C1         -5.3600   -6.2800   -1.6460 C.2       1 MOL        -0.1500
      2 C2         -4.4750   -5.6360   -2.5590 C.2       1 MOL        -0.1500
      3 C3         -3.2660   -5.3250   -1.9760 C.2       1 MOL        -0.1100
      4 S1         -3.2020   -5.8080   -0.3350 S.3       1 MOL        -0.0800
      5 C4         -4.7930   -6.4360   -0.4000 C.2       1 MOL        -0.1100
      6 H1         -6.3600   -6.6120   -1.8910 H         1 MOL         0.1500
      7 H2         -4.7130   -5.4130   -3.5910 H         1 MOL         0.1500
      8 H3         -2.4180   -4.8370   -2.4350 H         1 MOL         0.1500
      9 H4         -5.2370   -6.8880    0.4750 H         1 MOL         0.1500
@<TRIPOS>BOND
     1    1    5 2
     2    1    2 1
     3    1    6 1
     4    2    3 2
     5    2    7 1
     6    3    4 1
     7    3    8 1
     8    4    5 1
     9    5    9 1
