@<TRIPOS>MOLECULE
124_trichlorobenzene
   12    12     0     0     0
SMALL
USER_CHARGES

@<TRIPOS>ATOM
      1 C1          1.8743   -1.0531   -0.1334 C.ar      1 MOL        -0.1170
      2 C2          0.8060   -0.4743    0.5520 C.ar      1 MOL        -0.1094
      3 C3          2.8764   -1.6932    1.9697 C.ar      1 MOL        -0.1145
      4 C4          2.9095   -1.6626    0.5756 C.ar      1 MOL         0.0227
      5 C5          0.7731   -0.5047    1.9461 C.ar      1 MOL         0.0154
      6 C6          1.8083   -1.1142    2.6550 C.ar      1 MOL         0.0245
      7 Cl1         4.2270   -2.3764   -0.2709 Cl        1 MOL        -0.0778
      8 Cl2        -0.5771    0.2297    2.7372 Cl        1 MOL        -0.0621
      9 Cl3         1.8238   -1.1844    4.3824 Cl        1 MOL        -0.0603
     10 H1          1.8867   -1.0218   -1.2198 H         1 MOL         0.1559
     11 H2          0.0078   -0.0037   -0.0165 H         1 MOL         0.1567
     12 H3          3.6855   -2.1694    2.5198 H         1 MOL         0.1659
@<TRIPOS>BOND
     1    1    2 ar
     2    1    4 ar
     3    2    5 ar
     4    3    4 ar
     5    3    6 ar
     6    4    7 1
     7    5    6 ar
     8    5    8 1
     9    6    9 1
    10    1   10 1
    11    2   11 1
    12    3   12 1
