@<TRIPOS>MOLECULE
26_dimethylnaphthalene
   24    25     0     0     0
SMALL
USER_CHARGES

@<TRIPOS>ATOM
      1 C1          1.6793   -1.3224   -0.2668 C.ar      1 MOL        -0.1162
      2 C2          1.7133   -5.0126    0.1346 C.ar      1 MOL        -0.1162
      3 C3          0.3478   -1.0286    0.0286 C.ar      1 MOL        -0.1262
      4 C4          3.0446   -5.3066   -0.1614 C.ar      1 MOL        -0.1262
      5 C5          3.4816   -2.9613   -0.5293 C.ar      1 MOL        -0.1186
      6 C6         -0.0893   -3.3741    0.3973 C.ar      1 MOL        -0.1186
      7 C7          2.1450   -2.6470   -0.2343 C.ar      1 MOL        -0.0358
      8 C8          1.2475   -3.6881    0.1025 C.ar      1 MOL        -0.0358
      9 C9         -0.5346   -2.0524    0.3602 C.ar      1 MOL        -0.0673
     10 C10         3.9272   -4.2829   -0.4929 C.ar      1 MOL        -0.0673
     11 C11        -1.9581   -1.7367    0.6754 C.3       1 MOL        -0.0604
     12 C12         5.3506   -4.5984   -0.8081 C.3       1 MOL        -0.0604
     13 H1          2.3515   -0.5061   -0.5232 H         1 MOL         0.1316
     14 H2          1.0410   -5.8288    0.3908 H         1 MOL         0.1316
     15 H3          0.0091    0.0037   -0.0028 H         1 MOL         0.1312
     16 H4          3.3831   -6.3390   -0.1312 H         1 MOL         0.1312
     17 H5          4.1825   -2.1699   -0.7899 H         1 MOL         0.1317
     18 H6         -0.7903   -4.1657    0.6570 H         1 MOL         0.1317
     19 H7         -2.2363   -2.1594    1.6485 H         1 MOL         0.0433
     20 H8         -2.1283   -0.6528    0.7051 H         1 MOL         0.0433
     21 H9         -2.6345   -2.1438   -0.0874 H         1 MOL         0.0433
     22 H10         5.9818   -4.4368    0.0742 H         1 MOL         0.0433
     23 H11         5.4652   -5.6410   -1.1318 H         1 MOL         0.0433
     24 H12         5.7265   -3.9689   -1.6252 H         1 MOL         0.0433
@<TRIPOS>BOND
     1    1    3 ar
     2    1    7 ar
     3    2    4 ar
     4    2    8 ar
     5    3    9 ar
     6    4   10 ar
     7    5    7 ar
     8    5   10 ar
     9    6    8 ar
    10    6    9 ar
    11    7    8 ar
    12    9   11 1
    13   10   12 1
    14    1   13 1
    15    2   14 1
    16    3   15 1
    17    4   16 1
    18    5   17 1
    19    6   18 1
    20   11   19 1
    21   11   20 1
    22   11   21 1
    23   12   22 1
    24   12   23 1
    25   12   24 1
