@<TRIPOS>MOLECULE
34_dimethylpyridine
   17    17     0     0     0
SMALL
USER_CHARGES

@<TRIPOS>ATOM
      1 C1          0.2061   -0.4420    0.9680 C.ar      1 MOL        -0.2441
      2 C2         -0.6461   -1.3849    1.5199 C.ar      1 MOL         0.3903
      3 C3          0.6597   -1.5966    3.3985 C.ar      1 MOL         0.3959
      4 C4          1.3347   -0.0801    1.6952 C.ar      1 MOL        -0.0321
      5 C5          1.5731   -0.6637    2.9345 C.ar      1 MOL        -0.1850
      6 C6          2.2736    0.9330    1.1282 C.3       1 MOL        -0.0656
      7 C7          2.7669   -0.3139    3.7537 C.3       1 MOL        -0.0546
      8 N1         -0.4477   -1.9735    2.7207 N.ar      1 MOL        -0.6664
      9 H1         -0.0088   -0.0050   -0.0012 H         1 MOL         0.1415
     10 H2         -1.5408   -1.7005    0.9934 H         1 MOL         0.0204
     11 H3          0.7926   -2.0857    4.3587 H         1 MOL         0.0203
     12 H4          3.3092    0.5855    1.2210 H         1 MOL         0.0481
     13 H5          2.0618    1.1209    0.0682 H         1 MOL         0.0481
     14 H6          2.1800    1.8950    1.6475 H         1 MOL         0.0481
     15 H7          2.8762    0.7757    3.8272 H         1 MOL         0.0450
     16 H8          2.6891   -0.7235    4.7699 H         1 MOL         0.0450
     17 H9          3.6869   -0.7257    3.3167 H         1 MOL         0.0450
@<TRIPOS>BOND
     1    1    2 ar
     2    1    4 ar
     3    2    8 ar
     4    3    5 ar
     5    3    8 ar
     6    4    5 ar
     7    4    6 1
     8    5    7 1
     9    1    9 1
    10    2   10 1
    11    3   11 1
    12    6   12 1
    13    6   13 1
    14    6   14 1
    15    7   15 1
    16    7   16 1
    17    7   17 1
