@<TRIPOS>MOLECULE
CUP08036_AM1BCC_v1_0
   38    37     0     0     0
SMALL
USER_CHARGES

@<TRIPOS>ATOM
      1 C1         -7.0168    1.4581    0.8625 C.2       1 MOL         0.6438
      2 C2         -4.1573    1.8721   -0.0597 C.2       1 MOL         0.6351
      3 C3         -7.9014    0.0205    4.0859 C.3       1 MOL        -0.1238
      4 C4         -3.0820    3.9774    2.7105 C.3       1 MOL        -0.1186
      5 C5         -5.5158   -4.2559    0.5401 C.3       1 MOL         0.1308
      6 C6         -1.2188   -2.4634   -0.4329 C.3       1 MOL         0.1308
      7 C7         -6.3724    0.7883   -0.3201 C.3       1 MOL        -0.1228
      8 C8         -7.7822    1.1268    3.0562 C.3       1 MOL         0.1413
      9 C9         -3.2227    3.5789    1.2547 C.3       1 MOL         0.1500
     10 C10        -4.9057    0.5494    0.0029 C.3       1 MOL         0.1278
     11 O1         -7.4404    2.6050    0.8463 O.2       1 MOL        -0.5665
     12 O2         -3.8553    2.4622   -1.0888 O.2       1 MOL        -0.5151
     13 O3         -7.1124    0.5942    1.9066 O.3       1 MOL        -0.4322
     14 O4         -3.9153    2.3261    1.2015 O.3       1 MOL        -0.4434
     15 O5         -4.8890   -3.4763   -0.4619 O.3       1 MOL        -0.4872
     16 O6         -2.4895   -3.0411   -0.6657 O.3       1 MOL        -0.4872
     17 P1         -3.8112   -2.3439   -0.0203 P.3       1 MOL         0.8633
     18 S1         -3.6818   -2.1514    1.9170 S.2       1 MOL        -0.4201
     19 S2         -4.1822   -0.6301   -1.1966 S.3       1 MOL        -0.4621
     20 H1         -8.4648   -0.8256    3.6783 H         1 MOL         0.0498
     21 H2         -6.9117   -0.3587    4.3609 H         1 MOL         0.0498
     22 H3         -8.4058    0.3789    4.9875 H         1 MOL         0.0498
     23 H4         -4.0666    4.0672    3.1816 H         1 MOL         0.0606
     24 H5         -2.5307    3.2129    3.2680 H         1 MOL         0.0606
     25 H6         -2.5567    4.9318    2.8049 H         1 MOL         0.0606
     26 H7         -6.4420   -4.6679    0.1313 H         1 MOL         0.0718
     27 H8         -5.7563   -3.6536    1.4199 H         1 MOL         0.0718
     28 H9         -4.8631   -5.0848    0.8252 H         1 MOL         0.0718
     29 H10        -0.5419   -2.7838   -1.2290 H         1 MOL         0.0718
     30 H11        -0.8231   -2.8136    0.5238 H         1 MOL         0.0718
     31 H12        -1.2711   -1.3716   -0.4374 H         1 MOL         0.0718
     32 H13        -6.5149    1.4067   -1.2149 H         1 MOL         0.1212
     33 H14        -6.9179   -0.1480   -0.4901 H         1 MOL         0.1212
     34 H15        -7.1989    1.9582    3.4669 H         1 MOL         0.0646
     35 H16        -8.7819    1.4779    2.7763 H         1 MOL         0.0646
     36 H17        -2.2317    3.4702    0.8003 H         1 MOL         0.0532
     37 H18        -3.7949    4.3434    0.7171 H         1 MOL         0.0532
     38 H19        -4.7879    0.1088    0.9987 H         1 MOL         0.1163
@<TRIPOS>BOND
     1    1    7 1
     2    1   11 2
     3    1   13 1
     4    2   10 1
     5    2   12 2
     6    2   14 1
     7    3    8 1
     8    4    9 1
     9    5   15 1
    10    6   16 1
    11    7   10 1
    12    8   13 1
    13    9   14 1
    14   10   19 1
    15   15   17 1
    16   16   17 1
    17   17   18 2
    18   17   19 1
    19    3   20 1
    20    3   21 1
    21    3   22 1
    22    4   23 1
    23    4   24 1
    24    4   25 1
    25    5   26 1
    26    5   27 1
    27    5   28 1
    28    6   29 1
    29    6   30 1
    30    6   31 1
    31    7   32 1
    32    7   33 1
    33    8   34 1
    34    8   35 1
    35    9   36 1
    36    9   37 1
    37   10   38 1
