@<TRIPOS>MOLECULE
CUP08010_AM1BCC_v1_0
   31    32     0     0     0
SMALL
USER_CHARGES

@<TRIPOS>ATOM
      1 C1         -3.8235   -2.6718   -4.7117 C.ar      1 MOL        -0.1258
      2 C2         -2.8277   -1.6961   -4.6948 C.ar      1 MOL        -0.1003
      3 C3         -3.4756   -4.0163   -4.5981 C.ar      1 MOL        -0.0631
      4 C4         -1.4856   -2.0676   -4.5640 C.ar      1 MOL        -0.0907
      5 C5         -2.1271   -4.3687   -4.4683 C.ar      1 MOL        -0.1577
      6 C6         -1.1223   -3.4146   -4.4489 C.ar      1 MOL         0.0997
      7 C7         -1.7015   -5.7595   -4.3464 C.2       1 MOL         0.6985
      8 C8         -0.5666  -11.8281   -1.5271 C.3       1 MOL         0.1221
      9 C9          3.3883   -9.5374   -2.3131 C.3       1 MOL         0.1221
     10 C10         0.1847   -7.2918   -4.0602 C.3       1 MOL         0.3286
     11 N1          0.2324   -3.7415   -4.3206 N.2       1 MOL        -0.2180
     12 N2          0.5769   -4.9368   -4.2067 N.2       1 MOL        -0.0296
     13 N3         -0.3393   -5.9504   -4.2245 N.am      1 MOL        -0.2695
     14 O1         -2.5337   -6.6626   -4.3603 O.2       1 MOL        -0.5798
     15 O2         -0.1724  -10.4834   -1.3295 O.3       1 MOL        -0.4663
     16 O3          2.2015   -9.9939   -1.6910 O.3       1 MOL        -0.4663
     17 P1          0.7764   -9.7655   -2.4414 P.3       1 MOL         0.8062
     18 S1          0.6981  -10.6541   -4.1766 S.2       1 MOL        -0.4330
     19 S2          0.3552   -7.7130   -2.3104 S.3       1 MOL        -0.4445
     20 H1         -4.8679   -2.3853   -4.8122 H         1 MOL         0.1477
     21 H2         -3.0939   -0.6450   -4.7822 H         1 MOL         0.1459
     22 H3         -4.2467   -4.7833   -4.6094 H         1 MOL         0.1665
     23 H4         -0.7149   -1.3000   -4.5505 H         1 MOL         0.1596
     24 H5         -1.4771  -12.0107   -0.9505 H         1 MOL         0.0709
     25 H6          0.2160  -12.4994   -1.1647 H         1 MOL         0.0709
     26 H7         -0.7734  -12.0319   -2.5808 H         1 MOL         0.0709
     27 H8          4.1579   -9.4183   -1.5461 H         1 MOL         0.0709
     28 H9          3.2348   -8.5742   -2.8062 H         1 MOL         0.0709
     29 H10         3.7319  -10.2766   -3.0410 H         1 MOL         0.0709
     30 H11        -0.4837   -8.0082   -4.5462 H         1 MOL         0.1112
     31 H12         1.1615   -7.3554   -4.5509 H         1 MOL         0.1112
@<TRIPOS>BOND
     1    1    2 ar
     2    1    3 ar
     3    2    4 ar
     4    3    5 ar
     5    4    6 ar
     6    5    6 ar
     7    5    7 1
     8    6   11 1
     9    7   13 am
    10    7   14 2
    11    8   15 1
    12    9   16 1
    13   10   13 1
    14   10   19 1
    15   11   12 2
    16   12   13 1
    17   15   17 1
    18   16   17 1
    19   17   18 2
    20   17   19 1
    21    1   20 1
    22    2   21 1
    23    3   22 1
    24    4   23 1
    25    8   24 1
    26    8   25 1
    27    8   26 1
    28    9   27 1
    29    9   28 1
    30    9   29 1
    31   10   30 1
    32   10   31 1
