@<TRIPOS>MOLECULE
4_cyanopyridine
   12    12     0     0     0
SMALL
USER_CHARGES

@<TRIPOS>ATOM
      1 C1          2.2632    0.9327    1.0994 C.1       1 MOL         0.2231
      2 C2          0.1834   -0.3460    1.0107 C.ar      1 MOL        -0.2105
      3 C3          1.5263   -0.4068    3.0052 C.ar      1 MOL        -0.2105
      4 C4         -0.7036   -1.1995    1.6468 C.ar      1 MOL         0.3932
      5 C5          0.5791   -1.2576    3.5520 C.ar      1 MOL         0.3932
      6 C6          1.3172    0.0532    1.7098 C.ar      1 MOL         0.0247
      7 N1          3.0328    1.6483    0.6029 N.1       1 MOL        -0.3420
      8 N2         -0.5344   -1.6671    2.9040 N.ar      1 MOL        -0.6468
      9 H1         -0.0135   -0.0078   -0.0015 H         1 MOL         0.1568
     10 H2          2.3985   -0.1171    3.5821 H         1 MOL         0.1568
     11 H3         -1.6035   -1.5394    1.1448 H         1 MOL         0.0311
     12 H4          0.6957   -1.6443    4.5593 H         1 MOL         0.0311
@<TRIPOS>BOND
     1    1    6 1
     2    1    7 3
     3    2    4 ar
     4    2    6 ar
     5    3    5 ar
     6    3    6 ar
     7    4    8 ar
     8    5    8 ar
     9    2    9 1
    10    3   10 1
    11    4   11 1
    12    5   12 1
