@<TRIPOS>MOLECULE
4_methylpentan_2_one
   19    18     0     0     0
SMALL
USER_CHARGES

@<TRIPOS>ATOM
      1 C1          1.9781   -0.5487    0.5989 C.2       1 MOL         0.5620
      2 C2          0.6384   -1.2141    0.4164 C.3       1 MOL        -0.2005
      3 C3          4.7488   -1.8026    0.2531 C.3       1 MOL        -0.0916
      4 C4          5.1204   -1.4658    2.7050 C.3       1 MOL        -0.0916
      5 C5          2.8340   -1.0707    1.7426 C.3       1 MOL        -0.1759
      6 C6          4.3444   -0.9798    1.4791 C.3       1 MOL        -0.0559
      7 O1          2.3244    0.3840   -0.1242 O.2       1 MOL        -0.5301
      8 H1          0.0365   -1.0776    1.3180 H         1 MOL         0.0618
      9 H2          0.1150   -0.7636   -0.4316 H         1 MOL         0.0618
     10 H3          0.7820   -2.2784    0.2151 H         1 MOL         0.0618
     11 H4          5.8276   -1.7299    0.0779 H         1 MOL         0.0374
     12 H5          4.4999   -2.8612    0.3851 H         1 MOL         0.0374
     13 H6          4.2438   -1.4476   -0.6506 H         1 MOL         0.0374
     14 H7          6.2000   -1.3920    2.5366 H         1 MOL         0.0374
     15 H8          4.8839   -2.5100    2.9374 H         1 MOL         0.0374
     16 H9          4.8784   -0.8593    3.5843 H         1 MOL         0.0374
     17 H10         2.5709   -0.4739    2.6240 H         1 MOL         0.0626
     18 H11         2.5499   -2.1106    1.9412 H         1 MOL         0.0626
     19 H12         4.6222    0.0661    1.2978 H         1 MOL         0.0485
@<TRIPOS>BOND
     1    1    2 1
     2    1    5 1
     3    1    7 2
     4    3    6 1
     5    4    6 1
     6    5    6 1
     7    2    8 1
     8    2    9 1
     9    2   10 1
    10    3   11 1
    11    3   12 1
    12    3   13 1
    13    4   14 1
    14    4   15 1
    15    4   16 1
    16    5   17 1
    17    5   18 1
    18    6   19 1
