@<TRIPOS>MOLECULE
heptanal
   22    21     0     0     0
SMALL
USER_CHARGES

@<TRIPOS>ATOM
      1 C1          8.3266   -1.0702    1.1188 C.2       1 MOL         0.5596
      2 C2          0.8210   -0.4475    0.5682 C.3       1 MOL        -0.0900
      3 C3          7.1932   -0.4726    0.3268 C.3       1 MOL        -0.1969
      4 C4          2.1593   -0.0291   -0.0196 C.3       1 MOL        -0.0779
      5 C5          5.8388   -0.8769    0.9008 C.3       1 MOL        -0.0717
      6 C6          3.3262   -0.6628    0.7374 C.3       1 MOL        -0.0762
      7 C7          4.6698   -0.2658    0.1224 C.3       1 MOL        -0.0783
      8 O1          8.1594   -1.7410    2.1325 O.2       1 MOL        -0.5228
      9 H1          9.3427   -0.8342    0.7592 H         1 MOL        -0.0090
     10 H2          0.0008    0.0168    0.0117 H         1 MOL         0.0322
     11 H3          0.7388   -0.1386    1.6150 H         1 MOL         0.0322
     12 H4          0.6930   -1.5334    0.5190 H         1 MOL         0.0322
     13 H5          7.3019    0.6166    0.3015 H         1 MOL         0.0671
     14 H6          7.2854   -0.8466   -0.6985 H         1 MOL         0.0671
     15 H7          2.2417    1.0634    0.0159 H         1 MOL         0.0381
     16 H8          2.1964   -0.3232   -1.0749 H         1 MOL         0.0381
     17 H9          5.7585   -1.9703    0.8688 H         1 MOL         0.0481
     18 H10         5.7735   -0.5797    1.9547 H         1 MOL         0.0481
     19 H11         3.2962   -0.3491    1.7880 H         1 MOL         0.0390
     20 H12         3.2235   -1.7548    0.7231 H         1 MOL         0.0390
     21 H13         4.7087   -0.6012   -0.9212 H         1 MOL         0.0411
     22 H14         4.7568    0.8272    0.1145 H         1 MOL         0.0411
@<TRIPOS>BOND
     1    1    3 1
     2    1    8 2
     3    2    4 1
     4    3    5 1
     5    4    6 1
     6    5    7 1
     7    6    7 1
     8    1    9 1
     9    2   10 1
    10    2   11 1
    11    2   12 1
    12    3   13 1
    13    3   14 1
    14    4   15 1
    15    4   16 1
    16    5   17 1
    17    5   18 1
    18    6   19 1
    19    6   20 1
    20    7   21 1
    21    7   22 1
