@<TRIPOS>MOLECULE
2_methylpyrazine
   13    13     0     0     0
SMALL
USER_CHARGES

@<TRIPOS>ATOM
      1 C1         -1.7559   -1.1746    0.4303 C.ar      1 MOL         0.2718
      2 C2         -0.4277   -0.9882    0.1159 C.ar      1 MOL         0.2869
      3 C3         -1.4465   -3.4402    0.3942 C.ar      1 MOL         0.2748
      4 C4         -0.1183   -3.2537    0.0799 C.ar      1 MOL         0.3014
      5 C5          0.7837   -4.4227   -0.1125 C.3       1 MOL        -0.1451
      6 N1         -2.2892   -2.4040    0.5751 N.ar      1 MOL        -0.6260
      7 N2          0.4150   -2.0243   -0.0647 N.ar      1 MOL        -0.6333
      8 H1         -2.4324   -0.3415    0.5754 H         1 MOL         0.0338
      9 H2          0.0000   -0.0000   -0.0002 H         1 MOL         0.0331
     10 H3         -1.8820   -4.4254    0.5127 H         1 MOL         0.0324
     11 H4          1.4814   -4.5126    0.7301 H         1 MOL         0.0567
     12 H5          0.2147   -5.3592   -0.1920 H         1 MOL         0.0567
     13 H6          1.3687   -4.3295   -1.0379 H         1 MOL         0.0567
@<TRIPOS>BOND
     1    1    2 ar
     2    1    6 ar
     3    2    7 ar
     4    3    4 ar
     5    3    6 ar
     6    4    5 1
     7    4    7 ar
     8    1    8 1
     9    2    9 1
    10    3   10 1
    11    5   11 1
    12    5   12 1
    13    5   13 1
