@<TRIPOS>MOLECULE
pyrrole
   10    10     0     0     0
SMALL
USER_CHARGES

@<TRIPOS>ATOM
      1 C1          1.4336    0.4029    1.6736 C.2       1 MOL        -0.1964
      2 C2          0.2535   -0.0702    1.0484 C.2       1 MOL        -0.1964
      3 C3          1.3373    0.1029    3.0144 C.2       1 MOL        -0.1704
      4 C4         -0.5282   -0.6446    2.0264 C.2       1 MOL        -0.1704
      5 N1          0.1404   -0.5332    3.2174 N.pl3     1 MOL        -0.1797
      6 H1          2.2636    0.9069    1.1987 H         1 MOL         0.1500
      7 H2          0.0005    0.0000   -0.0002 H         1 MOL         0.1500
      8 H3          2.0114    0.2850    3.8396 H         1 MOL         0.1619
      9 H4         -1.4975   -1.1207    1.9811 H         1 MOL         0.1619
     10 H5         -0.1972   -0.8690    4.1089 H         1 MOL         0.2896
@<TRIPOS>BOND
     1    1    2 1
     2    1    3 2
     3    2    4 2
     4    3    5 1
     5    4    5 1
     6    1    6 1
     7    2    7 1
     8    3    8 1
     9    4    9 1
    10    5   10 1
