@<TRIPOS>MOLECULE
CUP08049_AM1BCC_v1_0
   23    24     0     0     0
SMALL
USER_CHARGES

@<TRIPOS>ATOM
      1 C1          6.0996    0.8286   -6.6981 C.ar      1 MOL        -0.1268
      2 C2          4.7779    1.2036   -6.9077 C.ar      1 MOL        -0.1265
      3 C3          6.4655    0.2751   -5.4785 C.ar      1 MOL        -0.1265
      4 C4          3.8199    1.0253   -5.8989 C.ar      1 MOL        -0.1112
      5 C5          5.5064    0.0991   -4.4738 C.ar      1 MOL        -0.1112
      6 C6          4.1571    0.4683   -4.6562 C.ar      1 MOL         0.0528
      7 C7          3.0049   -0.4940   -1.4322 C.2       1 MOL         0.2917
      8 C8          1.5601   -0.2117   -1.3251 C.2       1 MOL         0.1563
      9 C9          1.0308    0.3010   -2.4421 C.2       1 MOL        -0.2261
     10 C10         1.8334    0.5768   -3.6765 C.2       1 MOL         0.7115
     11 N1          3.7653   -0.2762   -2.4490 N.2       1 MOL        -0.3851
     12 N2          3.2026    0.2680   -3.5893 N.am      1 MOL        -0.1241
     13 N3          0.9237   -0.5002   -0.1272 N.pl3     1 MOL        -0.8654
     14 O1          1.2549    1.0487   -4.6552 O.2       1 MOL        -0.5939
     15 Cl1        -0.6598    0.7009   -2.4943 Cl        1 MOL        -0.0645
     16 H1          6.8391    0.9674   -7.4818 H         1 MOL         0.1342
     17 H2          4.4803    1.6383   -7.8590 H         1 MOL         0.1362
     18 H3          7.4953   -0.0232   -5.3009 H         1 MOL         0.1362
     19 H4          2.8113    1.3442   -6.1366 H         1 MOL         0.1507
     20 H5          5.8399   -0.3397   -3.5363 H         1 MOL         0.1507
     21 H6          3.4659   -0.9383   -0.5338 H         1 MOL         0.0521
     22 H7          1.4880   -0.3058    0.6976 H         1 MOL         0.4444
     23 H8         -0.0007   -0.0714   -0.0642 H         1 MOL         0.4444
@<TRIPOS>BOND
     1    1    2 ar
     2    1    3 ar
     3    2    4 ar
     4    3    5 ar
     5    4    6 ar
     6    5    6 ar
     7    6   12 1
     8    7    8 1
     9    7   11 2
    10    8    9 2
    11    8   13 1
    12    9   10 1
    13    9   15 1
    14   10   12 am
    15   10   14 2
    16   11   12 1
    17    1   16 1
    18    2   17 1
    19    3   18 1
    20    4   19 1
    21    5   20 1
    22    7   21 1
    23   13   22 1
    24   13   23 1
