@<TRIPOS>MOLECULE
hexafluoropropene
    9     8     0     0     0
SMALL
USER_CHARGES

@<TRIPOS>ATOM
      1 C1          1.1672    0.4711   -0.4491 C.2       1 MOL        -0.0569
      2 C2          0.0000   -0.0000    0.0000 C.2       1 MOL         0.3759
      3 C3          1.4860    0.7501   -1.8745 C.3       1 MOL         0.7130
      4 F1          2.1365    0.7134    0.4641 F         1 MOL        -0.1123
      5 F2         -0.1971   -0.2227    1.3162 F         1 MOL        -0.1276
      6 F3         -0.9955   -0.2569   -0.8747 F         1 MOL        -0.1276
      7 F4          2.7425    1.2234   -2.0690 F         1 MOL        -0.2215
      8 F5          1.3672   -0.3685   -2.6342 F         1 MOL        -0.2215
      9 F6          0.6363    1.6699   -2.3982 F         1 MOL        -0.2215
@<TRIPOS>BOND
     1    1    2 2
     2    1    3 1
     3    1    4 1
     4    2    5 1
     5    2    6 1
     6    3    7 1
     7    3    8 1
     8    3    9 1
