@<TRIPOS>MOLECULE
SAMPL4_023
   40    41     0     0     0
SMALL
USER_CHARGES

@<TRIPOS>ATOM
      1 C1          4.6570    1.3350    7.0000 C.ar      1 MOL        -0.1260
      2 C2         -0.7640   -3.2210    5.8390 C.ar      1 MOL        -0.1260
      3 C3          4.9590   -0.0250    6.9300 C.ar      1 MOL        -0.1328
      4 C4          3.6980    1.8810    6.1470 C.ar      1 MOL        -0.1328
      5 C5          0.5120   -3.7690    5.9620 C.ar      1 MOL        -0.1328
      6 C6         -0.9420   -2.0110    5.1700 C.ar      1 MOL        -0.1328
      7 C7          4.3010   -0.8390    6.0070 C.ar      1 MOL        -0.1117
      8 C8          3.0400    1.0680    5.2240 C.ar      1 MOL        -0.1117
      9 C9          1.6110   -3.1070    5.4160 C.ar      1 MOL        -0.1117
     10 C10         0.1570   -1.3480    4.6230 C.ar      1 MOL        -0.1117
     11 C11         3.3420   -0.2920    5.1540 C.ar      1 MOL        -0.0963
     12 C12         1.4340   -1.8960    4.7460 C.ar      1 MOL        -0.0963
     13 C13         1.5710   -0.4880   -1.7140 C.3       1 MOL         0.1576
     14 C14         0.1110   -1.8860   -0.4160 C.3       1 MOL         0.1576
     15 C15         1.6470   -0.4040    0.6860 C.3       1 MOL         0.1658
     16 C16         2.0250   -1.2580    1.8820 C.3       1 MOL         0.1264
     17 C17         2.6280   -1.1750    4.1520 C.3       1 MOL         0.2377
     18 N1          1.4310   -1.2600   -0.4800 N.3       1 MOL        -0.7406
     19 O1          2.2690   -0.4190    3.0030 O.3       1 MOL        -0.4236
     20 H1          5.1680    1.9680    7.7190 H         1 MOL         0.1305
     21 H2         -1.6200   -3.7380    6.2640 H         1 MOL         0.1305
     22 H3          5.7050   -0.4510    7.5940 H         1 MOL         0.1310
     23 H4          3.4620    2.9400    6.2020 H         1 MOL         0.1310
     24 H5          0.6510   -4.7120    6.4830 H         1 MOL         0.1310
     25 H6         -1.9360   -1.5840    5.0730 H         1 MOL         0.1310
     26 H7          4.5430   -1.8970    5.9590 H         1 MOL         0.1367
     27 H8          2.2950    1.5020    4.5640 H         1 MOL         0.1367
     28 H9          2.6020   -3.5410    5.5170 H         1 MOL         0.1367
     29 H10         0.0090   -0.4050    4.1030 H         1 MOL         0.1367
     30 H11         2.5590   -0.0220   -1.7560 H         1 MOL         0.0317
     31 H12         0.8100    0.2960   -1.7580 H         1 MOL         0.0317
     32 H13         1.4520   -1.1400   -2.5830 H         1 MOL         0.0317
     33 H14         0.0130   -2.4620    0.5080 H         1 MOL         0.0317
     34 H15        -0.0300   -2.5590   -1.2660 H         1 MOL         0.0317
     35 H16        -0.6710   -1.1230   -0.4400 H         1 MOL         0.0317
     36 H17         0.7270    0.1580    0.8740 H         1 MOL         0.0442
     37 H18         2.4530    0.2980    0.4490 H         1 MOL         0.0442
     38 H19         2.9440   -1.8140    1.6700 H         1 MOL         0.0397
     39 H20         1.2300   -1.9660    2.1380 H         1 MOL         0.0397
     40 H21         3.3380   -1.9220    3.7750 H         1 MOL         0.0507
@<TRIPOS>BOND
     1    1    3 ar
     2    1    4 ar
     3    2    5 ar
     4    2    6 ar
     5    3    7 ar
     6    4    8 ar
     7    5    9 ar
     8    6   10 ar
     9    7   11 ar
    10    8   11 ar
    11    9   12 ar
    12   10   12 ar
    13   11   17 1
    14   12   17 1
    15   13   18 1
    16   14   18 1
    17   15   16 1
    18   15   18 1
    19   16   19 1
    20   17   19 1
    21    1   20 1
    22    2   21 1
    23    3   22 1
    24    4   23 1
    25    5   24 1
    26    6   25 1
    27    7   26 1
    28    8   27 1
    29    9   28 1
    30   10   29 1
    31   13   30 1
    32   13   31 1
    33   13   32 1
    34   14   33 1
    35   14   34 1
    36   14   35 1
    37   15   36 1
    38   15   37 1
    39   16   38 1
    40   16   39 1
    41   17   40 1
