@<TRIPOS>MOLECULE
2_chlorophenol
   13    13     0     0     0
SMALL
USER_CHARGES

@<TRIPOS>ATOM
      1 C1          1.8846   -1.0376   -0.1090 C.ar      1 MOL        -0.0940
      2 C2          0.8176   -0.4410    0.5626 C.ar      1 MOL        -0.1589
      3 C3          2.9348   -1.6038    0.6137 C.ar      1 MOL        -0.1515
      4 C4          0.8008   -0.4105    1.9570 C.ar      1 MOL        -0.0850
      5 C5          2.9180   -1.5734    2.0082 C.ar      1 MOL         0.1372
      6 C6          1.8509   -0.9767    2.6799 C.ar      1 MOL        -0.0711
      7 O1          3.9570   -2.1349    2.6890 O.3       1 MOL        -0.4922
      8 Cl1         1.8053   -0.9221    4.4035 Cl        1 MOL        -0.0965
      9 H1          1.8989   -1.0591   -1.1949 H         1 MOL         0.1387
     10 H2          0.0007    0.0019    0.0003 H         1 MOL         0.1395
     11 H3          3.7625   -2.0670    0.0834 H         1 MOL         0.1553
     12 H4         -0.0372    0.0588    2.4661 H         1 MOL         0.1477
     13 H5          3.8734   -1.9056    3.6319 H         1 MOL         0.4307
@<TRIPOS>BOND
     1    1    2 ar
     2    1    3 ar
     3    2    4 ar
     4    3    5 ar
     5    4    6 ar
     6    5    6 ar
     7    5    7 1
     8    6    8 1
     9    1    9 1
    10    2   10 1
    11    3   11 1
    12    4   12 1
    13    7   13 1
