@<TRIPOS>MOLECULE
pentanal
   16    15     0     0     0
SMALL
USER_CHARGES

@<TRIPOS>ATOM
      1 C1          3.9375   -4.1331    1.7331 C.2       1 MOL         0.5602
      2 C2          1.0280   -0.2936    0.2373 C.3       1 MOL        -0.0900
      3 C3          2.5434   -3.6685    1.3866 C.3       1 MOL        -0.1975
      4 C4          1.0766   -1.7593    0.6390 C.3       1 MOL        -0.0799
      5 C5          2.4920   -2.1884    1.0222 C.3       1 MOL        -0.0719
      6 O1          4.9391   -3.4264    1.6979 O.2       1 MOL        -0.5227
      7 H1          4.0121   -5.1919    2.0358 H         1 MOL        -0.0094
      8 H2          0.0065   -0.0086   -0.0335 H         1 MOL         0.0336
      9 H3          1.6740   -0.1017   -0.6253 H         1 MOL         0.0336
     10 H4          1.3532    0.3501    1.0609 H         1 MOL         0.0336
     11 H5          2.1912   -4.2811    0.5496 H         1 MOL         0.0675
     12 H6          1.9039   -3.8723    2.2521 H         1 MOL         0.0675
     13 H7          0.7142   -2.3725   -0.1944 H         1 MOL         0.0403
     14 H8          0.3962   -1.9237    1.4827 H         1 MOL         0.0403
     15 H9          2.8444   -1.5867    1.8694 H         1 MOL         0.0474
     16 H10         3.1774   -1.9892    0.1887 H         1 MOL         0.0474
@<TRIPOS>BOND
     1    1    3 1
     2    1    6 2
     3    2    4 1
     4    3    5 1
     5    4    5 1
     6    1    7 1
     7    2    8 1
     8    2    9 1
     9    2   10 1
    10    3   11 1
    11    3   12 1
    12    4   13 1
    13    4   14 1
    14    5   15 1
    15    5   16 1
