@<TRIPOS>MOLECULE
24_dimethylpentan_3_one
   22    21     0     0     0
SMALL
USER_CHARGES

@<TRIPOS>ATOM
      1 C1         -2.7027   -1.9952    0.8734 C.2       1 MOL         0.5646
      2 C2         -0.5404   -0.7409    0.5952 C.3       1 MOL        -0.0839
      3 C3         -2.7425    0.3836    0.1372 C.3       1 MOL        -0.0839
      4 C4         -4.8868   -3.2315    1.0394 C.3       1 MOL        -0.0839
      5 C5         -3.0695   -4.0412   -0.4988 C.3       1 MOL        -0.0839
      6 C6         -1.9627   -0.9241    0.0741 C.3       1 MOL        -0.1615
      7 C7         -3.7423   -2.8206    0.1176 C.3       1 MOL        -0.1615
      8 O1         -2.4727   -2.1837    2.0689 O.2       1 MOL        -0.5247
      9 H1         -0.5336   -0.3725    1.6270 H         1 MOL         0.0417
     10 H2          0.0103   -0.0244   -0.0232 H         1 MOL         0.0417
     11 H3          0.0040   -1.6914    0.5797 H         1 MOL         0.0417
     12 H4         -3.7545    0.2586   -0.2621 H         1 MOL         0.0417
     13 H5         -2.8401    0.7384    1.1693 H         1 MOL         0.0417
     14 H6         -2.2439    1.1640   -0.4469 H         1 MOL         0.0417
     15 H7         -5.3439   -2.3522    1.5061 H         1 MOL         0.0417
     16 H8         -5.6647   -3.7615    0.4799 H         1 MOL         0.0417
     17 H9         -4.5400   -3.8903    1.8434 H         1 MOL         0.0417
     18 H10        -2.6246   -4.6807    0.2718 H         1 MOL         0.0417
     19 H11        -3.7901   -4.6397   -1.0655 H         1 MOL         0.0417
     20 H12        -2.2660   -3.7456   -1.1817 H         1 MOL         0.0417
     21 H13        -1.8977   -1.2596   -0.9674 H         1 MOL         0.0593
     22 H14        -4.1614   -2.1945   -0.6787 H         1 MOL         0.0593
@<TRIPOS>BOND
     1    1    6 1
     2    1    7 1
     3    1    8 2
     4    2    6 1
     5    3    6 1
     6    4    7 1
     7    5    7 1
     8    2    9 1
     9    2   10 1
    10    2   11 1
    11    3   12 1
    12    3   13 1
    13    3   14 1
    14    4   15 1
    15    4   16 1
    16    4   17 1
    17    5   18 1
    18    5   19 1
    19    5   20 1
    20    6   21 1
    21    7   22 1
