@<TRIPOS>MOLECULE
mfc
   12    11     0     0     0
SMALL
NO_CHARGES

@<TRIPOS>ATOM
      1 H1          0.5220    1.4330    0.6690 H         1 MOL         0.0000
      2 C1          0.6260    0.3620    0.6050 C.3       1 MOL         0.0000
      3 H2          0.4990   -0.0630    1.6050 H         1 MOL         0.0000
      4 C2          2.0310    0.0160    0.1210 C.3       1 MOL         0.0000
      5 H3          2.2060   -1.0480    0.0510 H         1 MOL         0.0000
      6 H4          2.2020    0.4540   -0.8800 H         1 MOL         0.0000
      7 H5          2.7770    0.4490    0.8080 H         1 MOL         0.0000
      8 C3         -0.4270   -0.2180   -0.3330 C.3       1 MOL         0.0000
      9 H6         -0.3070    0.2030   -1.3460 H         1 MOL         0.0000
     10 H7         -0.3250   -1.2980   -0.4210 H         1 MOL         0.0000
     11 S1         -2.1010    0.1860    0.2540 S.3       1 MOL         0.0000
     12 H8         -2.7860   -0.4290   -0.7300 H         1 MOL         0.0000
@<TRIPOS>BOND
     1    1    2 1
     2    2    3 1
     3    2    4 1
     4    2    8 1
     5    4    5 1
     6    4    6 1
     7    4    7 1
     8    8    9 1
     9    8   10 1
    10    8   11 1
    11   11   12 1
