@<TRIPOS>MOLECULE
methyl_pentanoate
   20    19     0     0     0
SMALL
USER_CHARGES

@<TRIPOS>ATOM
      1 C1          2.1308    1.0102    4.6318 C.2       1 MOL         0.6279
      2 C2         -0.5097    0.8297    0.3440 C.3       1 MOL        -0.0908
      3 C3          3.2200    1.0848    6.7312 C.3       1 MOL         0.1285
      4 C4          0.7559    1.0090    4.0034 C.3       1 MOL        -0.1247
      5 C5         -0.5734    0.9185    1.8603 C.3       1 MOL        -0.0796
      6 C6          0.8236    0.9589    2.4780 C.3       1 MOL        -0.0751
      7 O1          3.1875    0.9580    4.0177 O.2       1 MOL        -0.5396
      8 O2          1.9958    1.0770    5.9897 O.3       1 MOL        -0.4430
      9 H1          0.0115    1.6948   -0.0782 H         1 MOL         0.0339
     10 H2          0.0151   -0.0768    0.0261 H         1 MOL         0.0339
     11 H3         -1.5196    0.8028   -0.0769 H         1 MOL         0.0339
     12 H4          3.8145    1.9559    6.4453 H         1 MOL         0.0495
     13 H5          3.7769    0.1670    6.5265 H         1 MOL         0.0495
     14 H6          2.9891    1.1383    7.7978 H         1 MOL         0.0495
     15 H7          0.2103    0.1356    4.3781 H         1 MOL         0.0769
     16 H8          0.2347    1.9194    4.3202 H         1 MOL         0.0769
     17 H9         -1.1328    1.8173    2.1450 H         1 MOL         0.0424
     18 H10        -1.1273    0.0554    2.2477 H         1 MOL         0.0424
     19 H11         1.3685    1.8348    2.1037 H         1 MOL         0.0539
     20 H12         1.3931    0.0757    2.1623 H         1 MOL         0.0539
@<TRIPOS>BOND
     1    1    4 1
     2    1    7 2
     3    1    8 1
     4    2    5 1
     5    3    8 1
     6    4    6 1
     7    5    6 1
     8    2    9 1
     9    2   10 1
    10    2   11 1
    11    3   12 1
    12    3   13 1
    13    3   14 1
    14    4   15 1
    15    4   16 1
    16    5   17 1
    17    5   18 1
    18    6   19 1
    19    6   20 1
