@<TRIPOS>MOLECULE
indane
   19    20     0     0     0
SMALL
USER_CHARGES

@<TRIPOS>ATOM
      1 C1         -0.2473   -0.9840    0.3892 C.ar      1 MOL        -0.1317
      2 C2         -1.0711   -1.0949    1.5208 C.ar      1 MOL        -0.1317
      3 C3          0.2633   -2.1245   -0.2346 C.ar      1 MOL        -0.1171
      4 C4         -1.3967   -2.3478    2.0447 C.ar      1 MOL        -0.1171
      5 C5         -0.0750   -3.3628    0.2842 C.ar      1 MOL        -0.0796
      6 C6         -0.8965   -3.4734    1.4123 C.ar      1 MOL        -0.0796
      7 C7          0.3742   -4.7116   -0.1820 C.3       1 MOL        -0.0451
      8 C8         -1.0729   -4.9062    1.8048 C.3       1 MOL        -0.0451
      9 C9         -0.6484   -5.6225    0.5140 C.3       1 MOL        -0.0784
     10 H1          0.0000   -0.0002   -0.0001 H         1 MOL         0.1289
     11 H2         -1.4538   -0.1957    1.9961 H         1 MOL         0.1289
     12 H3          0.9088   -2.0359   -1.1016 H         1 MOL         0.1324
     13 H4         -2.0238   -2.4305    2.9258 H         1 MOL         0.1324
     14 H5          0.3274   -4.8167   -1.2691 H         1 MOL         0.0526
     15 H6          1.3900   -4.9135    0.1725 H         1 MOL         0.0526
     16 H7         -0.4029   -5.1545    2.6343 H         1 MOL         0.0526
     17 H8         -2.1065   -5.1438    2.0717 H         1 MOL         0.0526
     18 H9         -1.5266   -5.7390   -0.1366 H         1 MOL         0.0461
     19 H10        -0.2534   -6.6256    0.7037 H         1 MOL         0.0461
@<TRIPOS>BOND
     1    1    2 ar
     2    1    3 ar
     3    2    4 ar
     4    3    5 ar
     5    4    6 ar
     6    5    6 ar
     7    5    7 1
     8    6    8 1
     9    7    9 1
    10    8    9 1
    11    1   10 1
    12    2   11 1
    13    3   12 1
    14    4   13 1
    15    7   14 1
    16    7   15 1
    17    8   16 1
    18    8   17 1
    19    9   18 1
    20    9   19 1
