@<TRIPOS>MOLECULE
hex_1_yne
   16    15     0     0     0
SMALL
USER_CHARGES

@<TRIPOS>ATOM
      1 C1          3.2173    3.6499   -3.2577 C.1       1 MOL        -0.1285
      2 C2          1.3907   -0.4449   -1.0600 C.3       1 MOL        -0.0907
      3 C3          2.1450    3.1118   -2.4091 C.3       1 MOL        -0.0094
      4 C4          1.2135    1.0470   -1.2938 C.3       1 MOL        -0.0783
      5 C5          2.3265    1.6120   -2.1762 C.3       1 MOL        -0.0716
      6 H1          4.8677    4.4852   -4.5656 H         1 MOL         0.1628
      7 C6          4.0918    4.0926   -3.9508 C.1       1 MOL        -0.1648
      8 H2          0.5842   -0.8277   -0.4268 H         1 MOL         0.0328
      9 H3          2.3425   -0.6534   -0.5610 H         1 MOL         0.0328
     10 H4          1.3705   -0.9954   -2.0059 H         1 MOL         0.0328
     11 H5          2.1404    3.6392   -1.4480 H         1 MOL         0.0575
     12 H6          1.1747    3.2995   -2.8835 H         1 MOL         0.0575
     13 H7          0.2392    1.2238   -1.7642 H         1 MOL         0.0396
     14 H8          1.2060    1.5639   -0.3271 H         1 MOL         0.0396
     15 H9          3.3003    1.4246   -1.7055 H         1 MOL         0.0439
     16 H10         2.3358    1.0853   -3.1392 H         1 MOL         0.0439
@<TRIPOS>BOND
     1    1    7 3
     2    6    7 1
     3    1    3 1
     4    2    4 1
     5    2    8 1
     6    2    9 1
     7    2   10 1
     8    3    5 1
     9    3   11 1
    10    3   12 1
    11    4    5 1
    12    4   13 1
    13    4   14 1
    14    5   15 1
    15    5   16 1
