@<TRIPOS>MOLECULE
isopropylbenzene
   21    21     0     0     0
SMALL
USER_CHARGES

@<TRIPOS>ATOM
      1 C1          1.8846   -1.0376   -0.1090 C.ar      1 MOL        -0.1333
      2 C2          0.8176   -0.4410    0.5626 C.ar      1 MOL        -0.1290
      3 C3          2.9348   -1.6038    0.6137 C.ar      1 MOL        -0.1290
      4 C4          0.8008   -0.4105    1.9570 C.ar      1 MOL        -0.1265
      5 C5          2.9180   -1.5734    2.0082 C.ar      1 MOL        -0.1265
      6 C6          1.8509   -0.9767    2.6799 C.ar      1 MOL        -0.0635
      7 C7          2.5110    0.3167    4.7402 C.3       1 MOL        -0.0849
      8 C8          2.4627   -2.2031    4.7955 C.3       1 MOL        -0.0849
      9 C9          1.8328   -0.9437    4.1709 C.3       1 MOL        -0.0331
     10 H1          1.8979   -1.0612   -1.1948 H         1 MOL         0.1298
     11 H2          0.0002    0.0000   -0.0002 H         1 MOL         0.1296
     12 H3          3.7655   -2.0682    0.0906 H         1 MOL         0.1296
     13 H4         -0.0347    0.0567    2.4718 H         1 MOL         0.1309
     14 H5          3.7404   -2.0171    2.5631 H         1 MOL         0.1309
     15 H6          3.5791    0.3439    4.4987 H         1 MOL         0.0352
     16 H7          2.4156    0.3653    5.8304 H         1 MOL         0.0352
     17 H8          2.0514    1.2197    4.3229 H         1 MOL         0.0352
     18 H9          1.9704   -3.1054    4.4158 H         1 MOL         0.0352
     19 H10         2.3639   -2.2013    5.8865 H         1 MOL         0.0352
     20 H11         3.5296   -2.2800    4.5589 H         1 MOL         0.0352
     21 H12         0.7874   -0.9159    4.5329 H         1 MOL         0.0487
@<TRIPOS>BOND
     1    1    2 ar
     2    1    3 ar
     3    2    4 ar
     4    3    5 ar
     5    4    6 ar
     6    5    6 ar
     7    6    9 1
     8    7    9 1
     9    8    9 1
    10    1   10 1
    11    2   11 1
    12    3   12 1
    13    4   13 1
    14    5   14 1
    15    7   15 1
    16    7   16 1
    17    7   17 1
    18    8   18 1
    19    8   19 1
    20    8   20 1
    21    9   21 1
