@<TRIPOS>MOLECULE
26_dimethylaniline
   20    20     0     0     0
SMALL
USER_CHARGES

@<TRIPOS>ATOM
      1 C1          1.8846   -1.0376   -0.1090 C.ar      1 MOL        -0.1678
      2 C2          0.8176   -0.4410    0.5626 C.ar      1 MOL        -0.0967
      3 C3          2.9348   -1.6038    0.6137 C.ar      1 MOL        -0.0967
      4 C4          0.8008   -0.4105    1.9570 C.ar      1 MOL        -0.1271
      5 C5          2.9180   -1.5734    2.0082 C.ar      1 MOL        -0.1271
      6 C6          1.8509   -0.9767    2.6799 C.ar      1 MOL         0.1428
      7 C7         -0.3558    0.2355    2.6485 C.3       1 MOL        -0.0539
      8 C8          4.0570   -2.1880    2.7551 C.3       1 MOL        -0.0539
      9 N1          1.8331   -0.9469    4.0937 N.pl3     1 MOL        -0.8211
     10 H1          1.8976   -1.0614   -1.1948 H         1 MOL         0.1303
     11 H2          0.0044   -0.0028   -0.0098 H         1 MOL         0.1283
     12 H3          3.7615   -2.0661    0.0808 H         1 MOL         0.1283
     13 H4         -0.3098    0.0411    3.7260 H         1 MOL         0.0395
     14 H5         -0.3568    1.3204    2.4880 H         1 MOL         0.0395
     15 H6         -1.3096   -0.1457    2.2640 H         1 MOL         0.0395
     16 H7          4.5602   -1.4318    3.3683 H         1 MOL         0.0395
     17 H8          3.7102   -2.9962    3.4102 H         1 MOL         0.0395
     18 H9          4.7904   -2.6261    2.0672 H         1 MOL         0.0395
     19 H10         2.4324   -1.5651    4.5985 H         1 MOL         0.3889
     20 H11         1.1566   -0.3778    4.5572 H         1 MOL         0.3889
@<TRIPOS>BOND
     1    1    2 ar
     2    1    3 ar
     3    2    4 ar
     4    3    5 ar
     5    4    6 ar
     6    4    7 1
     7    5    6 ar
     8    5    8 1
     9    6    9 1
    10    1   10 1
    11    2   11 1
    12    3   12 1
    13    7   13 1
    14    7   14 1
    15    7   15 1
    16    8   16 1
    17    8   17 1
    18    8   18 1
    19    9   19 1
    20    9   20 1
