@<TRIPOS>MOLECULE
pyrrolidine
   14    14     0     0     0
SMALL
USER_CHARGES

@<TRIPOS>ATOM
      1 C1          0.7679   -0.7659   -0.1492 C.3       1 MOL        -0.0799
      2 C2          1.0232   -1.5664    1.1225 C.3       1 MOL        -0.0799
      3 C3          0.3390   -1.7924   -1.1833 C.3       1 MOL         0.1378
      4 C4          0.7365   -3.0101    0.7467 C.3       1 MOL         0.1378
      5 N1          0.9271   -3.0385   -0.7006 N.3       1 MOL        -0.7897
      6 H1          0.0001   -0.0001   -0.0000 H         1 MOL         0.0462
      7 H2          1.6900   -0.2613   -0.4609 H         1 MOL         0.0462
      8 H3          2.0671   -1.4443    1.4342 H         1 MOL         0.0462
      9 H4          0.3854   -1.2321    1.9471 H         1 MOL         0.0462
     10 H5         -0.7540   -1.8738   -1.2133 H         1 MOL         0.0344
     11 H6          0.6936   -1.5384   -2.1863 H         1 MOL         0.0344
     12 H7          1.4056   -3.7085    1.2573 H         1 MOL         0.0344
     13 H8         -0.2972   -3.2744    0.9995 H         1 MOL         0.0344
     14 H9          0.4578   -3.8434   -1.1118 H         1 MOL         0.3516
@<TRIPOS>BOND
     1    1    2 1
     2    1    3 1
     3    2    4 1
     4    3    5 1
     5    4    5 1
     6    1    6 1
     7    1    7 1
     8    2    8 1
     9    2    9 1
    10    3   10 1
    11    3   11 1
    12    4   12 1
    13    4   13 1
    14    5   14 1
