@<TRIPOS>MOLECULE
d-xylose
   20    20     0     0     0
SMALL
USER_CHARGES

@<TRIPOS>ATOM
      1 C1          0.3520   -0.7180   -0.7490 C.3       1 MOL         0.0942
      2 C2          0.3580   -2.1200   -0.1520 C.3       1 MOL         0.0781
      3 C3          0.9790   -3.1310   -1.1190 C.3       1 MOL         0.1435
      4 C4          2.3190   -2.6090   -1.6400 C.3       1 MOL         0.1016
      5 C5          2.2080   -1.1750   -2.1650 C.3       1 MOL         0.2994
      6 O1          1.6550   -0.3160   -1.1640 O.3       1 MOL        -0.4394
      7 O2         -0.9850   -2.4860    0.1440 O.3       1 MOL        -0.5704
      8 O3          1.2210   -4.3590   -0.4300 O.3       1 MOL        -0.5582
      9 O4          2.8090   -3.4530   -2.6760 O.3       1 MOL        -0.5719
     10 O5          1.4910   -1.0970   -3.3960 O.3       1 MOL        -0.6200
     11 H1         -0.3500   -0.6430   -1.5890 H         1 MOL         0.0593
     12 H2          0.0010    0.0010   -0.0000 H         1 MOL         0.0690
     13 H3          0.9190   -2.1200    0.7890 H         1 MOL         0.0397
     14 H4          0.2950   -3.3680   -1.9400 H         1 MOL         0.1210
     15 H5          3.0480   -2.6380   -0.8200 H         1 MOL         0.0532
     16 H6          3.2120   -0.8000   -2.3870 H         1 MOL         0.0728
     17 H7         -1.3170   -1.8320    0.7790 H         1 MOL         0.3996
     18 H8          1.8300   -4.1500    0.2940 H         1 MOL         0.3916
     19 H9          3.6550   -3.0760   -2.9650 H         1 MOL         0.4128
     20 H10         1.4740   -0.1610   -3.6450 H         1 MOL         0.4243
@<TRIPOS>BOND
     1    1    2 1
     2    1    6 1
     3    2    3 1
     4    2    7 1
     5    3    4 1
     6    3    8 1
     7    4    5 1
     8    4    9 1
     9    5    6 1
    10    5   10 1
    11    1   11 1
    12    1   12 1
    13    2   13 1
    14    3   14 1
    15    4   15 1
    16    5   16 1
    17    7   17 1
    18    8   18 1
    19    9   19 1
    20   10   20 1
