@<TRIPOS>MOLECULE
2_methylpentane
   20    19     0     0     0
SMALL
USER_CHARGES

@<TRIPOS>ATOM
      1 C1          0.8222   -0.2572   -0.6038 C.3       1 MOL        -0.0899
      2 C2          2.1897    2.3482   -3.8438 C.3       1 MOL        -0.0871
      3 C3          0.9138    4.2731   -2.8810 C.3       1 MOL        -0.0871
      4 C4          0.8430    0.4612   -1.9447 C.3       1 MOL        -0.0768
      5 C5          0.8300    1.9809   -1.7632 C.3       1 MOL        -0.0732
      6 C6          0.9223    2.7580   -3.0895 C.3       1 MOL        -0.0657
      7 H1          1.6997    0.0050   -0.0041 H         1 MOL         0.0313
      8 H2         -0.0751    0.0034   -0.0335 H         1 MOL         0.0313
      9 H3          0.8262   -1.3413   -0.7547 H         1 MOL         0.0313
     10 H4          2.1940    1.2711   -4.0417 H         1 MOL         0.0320
     11 H5          3.0903    2.5916   -3.2697 H         1 MOL         0.0320
     12 H6          2.2528    2.8633   -4.8083 H         1 MOL         0.0320
     13 H7          1.7187    4.5856   -2.2071 H         1 MOL         0.0320
     14 H8          1.0486    4.7967   -3.8337 H         1 MOL         0.0320
     15 H9         -0.0368    4.6122   -2.4584 H         1 MOL         0.0320
     16 H10         1.7384    0.1594   -2.5000 H         1 MOL         0.0374
     17 H11        -0.0273    0.1387   -2.5258 H         1 MOL         0.0374
     18 H12        -0.0790    2.2753   -1.2230 H         1 MOL         0.0373
     19 H13         1.6784    2.2658   -1.1276 H         1 MOL         0.0373
     20 H14         0.0597    2.4926   -3.7138 H         1 MOL         0.0445
@<TRIPOS>BOND
     1    1    4 1
     2    2    6 1
     3    3    6 1
     4    4    5 1
     5    5    6 1
     6    1    7 1
     7    1    8 1
     8    1    9 1
     9    2   10 1
    10    2   11 1
    11    2   12 1
    12    3   13 1
    13    3   14 1
    14    3   15 1
    15    4   16 1
    16    4   17 1
    17    5   18 1
    18    5   19 1
    19    6   20 1
