@<TRIPOS>MOLECULE
methyl_octanoate
   29    28     0     0     0
SMALL
USER_CHARGES

@<TRIPOS>ATOM
      1 C1          3.3842   -8.3146   -1.2415 C.2       1 MOL         0.6288
      2 C2          0.6181    0.1201   -0.7579 C.3       1 MOL        -0.0896
      3 C3          4.2188  -10.5123   -0.9724 C.3       1 MOL         0.1271
      4 C4          3.0544   -7.0607   -0.4620 C.3       1 MOL        -0.1264
      5 C5          0.9417   -1.1341   -1.5540 C.3       1 MOL        -0.0781
      6 C6          2.5620   -5.9146   -1.3454 C.3       1 MOL        -0.0742
      7 C7          1.4908   -2.2417   -0.6552 C.3       1 MOL        -0.0768
      8 C8          2.3013   -4.6323   -0.5488 C.3       1 MOL        -0.0799
      9 C9          1.7832   -3.5129   -1.4542 C.3       1 MOL        -0.0759
     10 O1          3.2867   -8.4365   -2.4549 O.2       1 MOL        -0.5373
     11 O2          3.8346   -9.2697   -0.3749 O.3       1 MOL        -0.4430
     12 H1          1.5127    0.5134   -0.2646 H         1 MOL         0.0317
     13 H2         -0.1355   -0.0854    0.0091 H         1 MOL         0.0317
     14 H3          0.2255    0.8983   -1.4199 H         1 MOL         0.0317
     15 H4          4.5202  -11.2150   -0.1918 H         1 MOL         0.0495
     16 H5          5.0469  -10.3438   -1.6654 H         1 MOL         0.0495
     17 H6          3.3664  -10.9224   -1.5192 H         1 MOL         0.0495
     18 H7          3.9708   -6.7498    0.0523 H         1 MOL         0.0765
     19 H8          2.2957   -7.2965    0.2928 H         1 MOL         0.0765
     20 H9          0.0346   -1.4818   -2.0617 H         1 MOL         0.0375
     21 H10         1.6744   -0.8876   -2.3313 H         1 MOL         0.0375
     22 H11         1.6518   -6.2118   -1.8801 H         1 MOL         0.0539
     23 H12         3.3261   -5.7105   -2.1055 H         1 MOL         0.0539
     24 H13         2.4092   -1.8961   -0.1654 H         1 MOL         0.0396
     25 H14         0.7663   -2.4645    0.1374 H         1 MOL         0.0396
     26 H15         3.2293   -4.3088   -0.0617 H         1 MOL         0.0440
     27 H16         1.5709   -4.8243    0.2456 H         1 MOL         0.0440
     28 H17         2.5259   -3.2955   -2.2313 H         1 MOL         0.0393
     29 H18         0.8702   -3.8451   -1.9630 H         1 MOL         0.0393
@<TRIPOS>BOND
     1    1    4 1
     2    1   10 2
     3    1   11 1
     4    2    5 1
     5    3   11 1
     6    4    6 1
     7    5    7 1
     8    6    8 1
     9    7    9 1
    10    8    9 1
    11    2   12 1
    12    2   13 1
    13    2   14 1
    14    3   15 1
    15    3   16 1
    16    3   17 1
    17    4   18 1
    18    4   19 1
    19    5   20 1
    20    5   21 1
    21    6   22 1
    22    6   23 1
    23    7   24 1
    24    7   25 1
    25    8   26 1
    26    8   27 1
    27    9   28 1
    28    9   29 1
