@<TRIPOS>MOLECULE
methyl_benzoate
   18    18     0     0     0
SMALL
USER_CHARGES

@<TRIPOS>ATOM
      1 C1          1.8846   -1.0376   -0.1090 C.ar      1 MOL        -0.0963
      2 C2          0.8176   -0.4410    0.5626 C.ar      1 MOL        -0.1478
      3 C3          2.9348   -1.6038    0.6137 C.ar      1 MOL        -0.1478
      4 C4          0.8008   -0.4105    1.9570 C.ar      1 MOL        -0.0711
      5 C5          2.9180   -1.5734    2.0082 C.ar      1 MOL        -0.0711
      6 C6          1.8509   -0.9767    2.6799 C.ar      1 MOL        -0.1347
      7 C7          1.8333   -0.9446    4.1336 C.2       1 MOL         0.6448
      8 C8          3.0391   -1.5804    6.0918 C.3       1 MOL         0.1317
      9 O1          0.9301   -0.4374    4.8121 O.2       1 MOL        -0.5438
     10 O2          2.9414   -1.5472    4.6639 O.3       1 MOL        -0.4410
     11 H1          1.8975   -1.0613   -1.1948 H         1 MOL         0.1360
     12 H2          0.0001    0.0000   -0.0000 H         1 MOL         0.1392
     13 H3          3.7651   -2.0690    0.0906 H         1 MOL         0.1392
     14 H4         -0.0358    0.0574    2.4697 H         1 MOL         0.1559
     15 H5          3.7417   -2.0179    2.5610 H         1 MOL         0.1559
     16 H6          2.0559   -1.7894    6.5203 H         1 MOL         0.0504
     17 H7          3.4097   -0.6186    6.4550 H         1 MOL         0.0504
     18 H8          3.7359   -2.3703    6.3821 H         1 MOL         0.0504
@<TRIPOS>BOND
     1    1    2 ar
     2    1    3 ar
     3    2    4 ar
     4    3    5 ar
     5    4    6 ar
     6    5    6 ar
     7    6    7 1
     8    7    9 2
     9    7   10 1
    10    8   10 1
    11    1   11 1
    12    2   12 1
    13    3   13 1
    14    4   14 1
    15    5   15 1
    16    8   16 1
    17    8   17 1
    18    8   18 1
