@<TRIPOS>MOLECULE
234_trimethylpentane
   26    25     0     0     0
SMALL
USER_CHARGES

@<TRIPOS>ATOM
      1 C1         -0.5868   -0.0105    0.9251 C.3       1 MOL        -0.0868
      2 C2          1.4653    0.7007    2.1707 C.3       1 MOL        -0.0868
      3 C3         -0.8922   -2.9279    3.2585 C.3       1 MOL        -0.0868
      4 C4         -2.2367   -1.6119    4.8847 C.3       1 MOL        -0.0868
      5 C5         -1.0991    0.9483    3.8637 C.3       1 MOL        -0.0870
      6 C6          0.3137   -0.3124    2.1259 C.3       1 MOL        -0.0629
      7 C7         -1.5111   -1.5510    3.5322 C.3       1 MOL        -0.0629
      8 C8         -0.4557   -0.3968    3.4829 C.3       1 MOL        -0.0524
      9 H1         -1.0653    0.9698    1.0134 H         1 MOL         0.0321
     10 H2         -0.0009   -0.0082   -0.0010 H         1 MOL         0.0321
     11 H3         -1.3697   -0.7652    0.8093 H         1 MOL         0.0321
     12 H4          2.0955    0.5393    3.0515 H         1 MOL         0.0321
     13 H5          1.1063    1.7342    2.1855 H         1 MOL         0.0321
     14 H6          2.1011    0.5916    1.2849 H         1 MOL         0.0321
     15 H7         -1.6300   -3.7249    3.4032 H         1 MOL         0.0321
     16 H8         -0.5407   -3.0133    2.2263 H         1 MOL         0.0321
     17 H9         -0.0493   -3.1231    3.9299 H         1 MOL         0.0321
     18 H10        -2.8592   -0.7273    5.0474 H         1 MOL         0.0321
     19 H11        -1.5248   -1.6916    5.7129 H         1 MOL         0.0321
     20 H12        -2.9061   -2.4782    4.9309 H         1 MOL         0.0321
     21 H13        -0.3883    1.7760    3.7959 H         1 MOL         0.0328
     22 H14        -1.4496    0.9396    4.9004 H         1 MOL         0.0328
     23 H15        -1.9551    1.1788    3.2217 H         1 MOL         0.0328
     24 H16         0.7899   -1.2833    1.9456 H         1 MOL         0.0439
     25 H17        -2.2752   -1.3704    2.7660 H         1 MOL         0.0439
     26 H18         0.2961   -0.6158    4.2550 H         1 MOL         0.0408
@<TRIPOS>BOND
     1    1    6 1
     2    2    6 1
     3    3    7 1
     4    4    7 1
     5    5    8 1
     6    6    8 1
     7    7    8 1
     8    1    9 1
     9    1   10 1
    10    1   11 1
    11    2   12 1
    12    2   13 1
    13    2   14 1
    14    3   15 1
    15    3   16 1
    16    3   17 1
    17    4   18 1
    18    4   19 1
    19    4   20 1
    20    5   21 1
    21    5   22 1
    22    5   23 1
    23    6   24 1
    24    7   25 1
    25    8   26 1
