@<TRIPOS>MOLECULE
dimethyl_sulfoxide
   10     9     0     0     0
SMALL
USER_CHARGES

@<TRIPOS>ATOM
      1 C1          0.8479   -0.5795    0.3725 C.3       1 MOL        -0.1242
      2 C2          1.5006    1.5517    1.8674 C.3       1 MOL        -0.1242
      3 O1          2.3866   -0.8809    2.5398 O.2       1 MOL        -0.5066
      4 S1          1.1185   -0.1984    2.1203 S.o       1 MOL         0.2652
      5 H1          1.2143   -1.5868    0.1627 H         1 MOL         0.0817
      6 H2          1.3889    0.1468   -0.2377 H         1 MOL         0.0817
      7 H3         -0.2211   -0.5211    0.1574 H         1 MOL         0.0817
      8 H4          0.6337    2.1537    2.1484 H         1 MOL         0.0817
      9 H5          1.7401    1.7148    0.8146 H         1 MOL         0.0817
     10 H6          2.3572    1.8218    2.4885 H         1 MOL         0.0817
@<TRIPOS>BOND
     1    1    4 1
     2    2    4 1
     3    3    4 2
     4    1    5 1
     5    1    6 1
     6    1    7 1
     7    2    8 1
     8    2    9 1
     9    2   10 1
