@<TRIPOS>MOLECULE
2_ethoxyethanol
   16    15     0     0     0
SMALL
USER_CHARGES

@<TRIPOS>ATOM
      1 C1         -5.6567    0.8147    0.2998 C.3       1 MOL        -0.1100
      2 C2         -4.4874   -0.0068   -0.1997 C.3       1 MOL         0.1322
      3 C3         -0.8936    0.4506    0.4416 C.3       1 MOL         0.1265
      4 C4         -2.1461   -0.1936   -0.1209 C.3       1 MOL         0.1035
      5 O1         -0.8015    1.7855   -0.0410 O.3       1 MOL        -0.6026
      6 O2         -3.2827    0.5410    0.3172 O.3       1 MOL        -0.4314
      7 H1         -6.6024    0.4193   -0.0812 H         1 MOL         0.0435
      8 H2         -5.6888    0.8149    1.3943 H         1 MOL         0.0435
      9 H3         -5.5576    1.8586   -0.0159 H         1 MOL         0.0435
     10 H4         -4.4432    0.0134   -1.2927 H         1 MOL         0.0352
     11 H5         -4.5756   -1.0442    0.1364 H         1 MOL         0.0352
     12 H6          0.0040   -0.0891    0.1246 H         1 MOL         0.0438
     13 H7         -0.9377    0.4835    1.5341 H         1 MOL         0.0438
     14 H8         -2.2509   -1.2251    0.2298 H         1 MOL         0.0420
     15 H9         -2.1275   -0.1762   -1.2145 H         1 MOL         0.0420
     16 H10         0.0053    1.8329   -0.5783 H         1 MOL         0.4093
@<TRIPOS>BOND
     1    1    2 1
     2    2    6 1
     3    3    4 1
     4    3    5 1
     5    4    6 1
     6    1    7 1
     7    1    8 1
     8    1    9 1
     9    2   10 1
    10    2   11 1
    11    3   12 1
    12    3   13 1
    13    4   14 1
    14    4   15 1
    15    5   16 1
