@<TRIPOS>MOLECULE
1_methylcyclohexene
   19    19     0     0     0
SMALL
USER_CHARGES

@<TRIPOS>ATOM
      1 C1          1.7770    0.4548   -1.0854 C.2       1 MOL        -0.1722
      2 C2          2.2250    1.2886   -2.0402 C.2       1 MOL        -0.1211
      3 C3          0.3712   -0.0661   -1.0290 C.3       1 MOL        -0.0406
      4 C4          1.3435    1.7495   -3.1744 C.3       1 MOL        -0.0378
      5 C5         -0.5881    0.6852   -1.9522 C.3       1 MOL        -0.0734
      6 C6          0.0496    0.9426   -3.3122 C.3       1 MOL        -0.0729
      7 C7          3.6292    1.8162   -2.0379 C.3       1 MOL        -0.0535
      8 H1          2.4517    0.1322   -0.2967 H         1 MOL         0.1195
      9 H2          0.3863   -1.1295   -1.2965 H         1 MOL         0.0449
     10 H3         -0.0003    0.0000    0.0000 H         1 MOL         0.0449
     11 H4          1.0978    2.8067   -3.0137 H         1 MOL         0.0451
     12 H5          1.8937    1.6867   -4.1209 H         1 MOL         0.0451
     13 H6         -1.5125    0.1089   -2.0715 H         1 MOL         0.0390
     14 H7         -0.8672    1.6424   -1.4933 H         1 MOL         0.0390
     15 H8         -0.6512    1.4776   -3.9626 H         1 MOL         0.0389
     16 H9          0.2664   -0.0169   -3.7990 H         1 MOL         0.0389
     17 H10         4.1713    1.4009   -1.1914 H         1 MOL         0.0387
     18 H11         3.6095    2.9012   -1.9617 H         1 MOL         0.0387
     19 H12         4.1250    1.5323   -2.9636 H         1 MOL         0.0387
@<TRIPOS>BOND
     1    1    2 2
     2    1    3 1
     3    2    4 1
     4    2    7 1
     5    3    5 1
     6    4    6 1
     7    5    6 1
     8    1    8 1
     9    3    9 1
    10    3   10 1
    11    4   11 1
    12    4   12 1
    13    5   13 1
    14    5   14 1
    15    6   15 1
    16    6   16 1
    17    7   17 1
    18    7   18 1
    19    7   19 1
