@<TRIPOS>MOLECULE
n_propyl_formate
   14    13     0     0     0
SMALL
USER_CHARGES

@<TRIPOS>ATOM
      1 C1          2.6256   -1.8218    4.7997 C.2       1 MOL         0.6283
      2 C2         -0.0035   -0.6640    0.8700 C.3       1 MOL        -0.0901
      3 C3          1.2444   -0.4434    1.7060 C.3       1 MOL        -0.0945
      4 C4          1.2749   -1.3494    2.9273 C.3       1 MOL         0.1342
      5 O1          1.8774   -2.6811    5.2388 O.2       1 MOL        -0.5344
      6 O2          2.4570   -1.0814    3.6686 O.3       1 MOL        -0.4459
      7 H1          3.5699   -1.5249    5.2816 H         1 MOL         0.0743
      8 H2         -0.9070   -0.4562    1.4521 H         1 MOL         0.0367
      9 H3          0.0000    0.0000   -0.0000 H         1 MOL         0.0367
     10 H4         -0.0566   -1.6961    0.5094 H         1 MOL         0.0367
     11 H5          1.2990    0.6047    2.0239 H         1 MOL         0.0532
     12 H6          2.1379   -0.6194    1.0950 H         1 MOL         0.0532
     13 H7          0.4098   -1.1652    3.5724 H         1 MOL         0.0558
     14 H8          1.2804   -2.4035    2.6318 H         1 MOL         0.0558
@<TRIPOS>BOND
     1    1    5 2
     2    1    6 1
     3    2    3 1
     4    3    4 1
     5    4    6 1
     6    1    7 1
     7    2    8 1
     8    2    9 1
     9    2   10 1
    10    3   11 1
    11    3   12 1
    12    4   13 1
    13    4   14 1
