@<TRIPOS>MOLECULE
ZINC01648158
   16    15     0     0     0
SMALL
USER_CHARGES

@<TRIPOS>ATOM
      1 C1         -4.9840   -7.1490   -2.1410 C.3       1 MOL         0.0000
      2 C2         -5.8030   -7.3270   -0.8750 C.3       1 MOL         0.0610
      3 C3         -5.0240   -6.9740    0.3820 C.2       1 MOL         0.4480
      4 O1         -3.8570   -6.5880    0.3440 O.2       1 MOL        -0.5700
      5 C4         -5.7850   -7.1310    1.6890 C.3       1 MOL         0.0610
      6 C5         -4.9490   -6.7620    2.9010 C.3       1 MOL         0.0000
      7 H1         -5.5800   -7.4120   -3.0200 H         1 MOL         0.0000
      8 H2         -4.6520   -6.1110   -2.2510 H         1 MOL         0.0000
      9 H3         -4.0940   -7.7860   -2.1270 H         1 MOL         0.0000
     10 H4         -6.6890   -6.6850   -0.9190 H         1 MOL         0.0000
     11 H5         -6.1280   -8.3700   -0.7930 H         1 MOL         0.0000
     12 H6         -6.6710   -6.4890    1.6470 H         1 MOL         0.0000
     13 H7         -6.1100   -8.1730    1.7720 H         1 MOL         0.0000
     14 H8         -5.5330   -6.8880    3.8190 H         1 MOL         0.0000
     15 H9         -4.0590   -7.3950    2.9730 H         1 MOL         0.0000
     16 H10        -4.6170   -5.7200    2.8480 H         1 MOL         0.0000
@<TRIPOS>BOND
     1    1    2 1
     2    1    7 1
     3    1    8 1
     4    1    9 1
     5    2    3 1
     6    2   10 1
     7    2   11 1
     8    3    4 2
     9    3    5 1
    10    5    6 1
    11    5   12 1
    12    5   13 1
    13    6   14 1
    14    6   15 1
    15    6   16 1
