@<TRIPOS>MOLECULE
oct_1_yne
   22    21     0     0     0
SMALL
USER_CHARGES

@<TRIPOS>ATOM
      1 C1         -4.9724    3.2429   -6.2019 C.1       1 MOL        -0.1626
      2 C2         -4.4143    2.2586   -5.8008 C.1       1 MOL        -0.1303
      3 C3         -0.6982   -0.8414   -0.0464 C.3       1 MOL        -0.0898
      4 C4         -3.7326    1.0515   -5.3132 C.3       1 MOL        -0.0094
      5 C5         -1.1946   -1.0247   -1.4717 C.3       1 MOL        -0.0781
      6 C6         -3.2353    1.2404   -3.8801 C.3       1 MOL        -0.0737
      7 C7         -1.9657    0.2020   -1.9583 C.3       1 MOL        -0.0772
      8 C8         -2.4920    0.0002   -3.3803 C.3       1 MOL        -0.0785
      9 H1         -5.4686    4.1157   -6.5568 H         1 MOL         0.1630
     10 H2         -0.0255    0.0190    0.0271 H         1 MOL         0.0319
     11 H3         -0.1496   -1.7301    0.2811 H         1 MOL         0.0319
     12 H4         -1.5340   -0.6844    0.6430 H         1 MOL         0.0319
     13 H5         -4.4211    0.1997   -5.3583 H         1 MOL         0.0573
     14 H6         -2.8881    0.8176   -5.9719 H         1 MOL         0.0573
     15 H7         -0.3378   -1.2113   -2.1295 H         1 MOL         0.0376
     16 H8         -1.8378   -1.9113   -1.5172 H         1 MOL         0.0376
     17 H9         -4.0844    1.4521   -3.2177 H         1 MOL         0.0468
     18 H10        -2.5711    2.1128   -3.8298 H         1 MOL         0.0468
     19 H11        -1.3117    1.0820   -1.9300 H         1 MOL         0.0399
     20 H12        -2.8049    0.4012   -1.2807 H         1 MOL         0.0399
     21 H13        -3.1652   -0.8654   -3.4034 H         1 MOL         0.0389
     22 H14        -1.6552   -0.2226   -4.0535 H         1 MOL         0.0389
@<TRIPOS>BOND
     1    1    2 3
     2    2    4 1
     3    3    5 1
     4    4    6 1
     5    5    7 1
     6    6    8 1
     7    7    8 1
     8    1    9 1
     9    3   10 1
    10    3   11 1
    11    3   12 1
    12    4   13 1
    13    4   14 1
    14    5   15 1
    15    5   16 1
    16    6   17 1
    17    6   18 1
    18    7   19 1
    19    7   20 1
    20    8   21 1
    21    8   22 1
