@<TRIPOS>MOLECULE
hexan_3_ol
   21    20     0     0     0
SMALL
USER_CHARGES

@<TRIPOS>ATOM
      1 C1         -0.2376   -2.2912    1.2073 C.3       1 MOL        -0.0904
      2 C2         -0.3783    0.1974    6.6093 C.3       1 MOL        -0.0892
      3 C3          0.0924   -1.8665    2.6299 C.3       1 MOL        -0.0777
      4 C4         -0.6283   -0.2989    5.1946 C.3       1 MOL        -0.0764
      5 C5          0.1532   -0.3405    2.7584 C.3       1 MOL        -0.1083
      6 C6          0.4585    0.1093    4.1927 C.3       1 MOL         0.1433
      7 O1          0.5622    1.5341    4.2072 O.3       1 MOL        -0.6029
      8 H1         -1.2096   -1.8959    0.8950 H         1 MOL         0.0327
      9 H2          0.5215   -1.9325    0.5050 H         1 MOL         0.0327
     10 H3         -0.2768   -3.3827    1.1373 H         1 MOL         0.0327
     11 H4         -0.2291    1.2816    6.6248 H         1 MOL         0.0354
     12 H5         -1.2386   -0.0346    7.2455 H         1 MOL         0.0354
     13 H6          0.4984   -0.2808    7.0550 H         1 MOL         0.0354
     14 H7         -0.6693   -2.2657    3.3095 H         1 MOL         0.0412
     15 H8          1.0514   -2.3112    2.9186 H         1 MOL         0.0412
     16 H9         -1.5942    0.0921    4.8500 H         1 MOL         0.0478
     17 H10        -0.7401   -1.3903    5.1995 H         1 MOL         0.0478
     18 H11         0.9326    0.0355    2.0836 H         1 MOL         0.0464
     19 H12        -0.8022    0.0803    2.4267 H         1 MOL         0.0464
     20 H13         1.4274   -0.2956    4.5080 H         1 MOL         0.0281
     21 H14         1.0359    1.7814    3.3991 H         1 MOL         0.3985
@<TRIPOS>BOND
     1    1    3 1
     2    2    4 1
     3    3    5 1
     4    4    6 1
     5    5    6 1
     6    6    7 1
     7    1    8 1
     8    1    9 1
     9    1   10 1
    10    2   11 1
    11    2   12 1
    12    2   13 1
    13    3   14 1
    14    3   15 1
    15    4   16 1
    16    4   17 1
    17    5   18 1
    18    5   19 1
    19    6   20 1
    20    7   21 1
