@<TRIPOS>MOLECULE
1,2,3,4-tetrachlorodibenzo-p-dioxin
   22    24     0     0     0
SMALL
USER_CHARGES

@<TRIPOS>ATOM
      1 C1         -1.8584    0.7400    0.8000 C.ar      1 MOL        -0.1234
      2 C2         -1.0039   -0.2568    0.3257 C.ar      1 MOL        -0.1234
      3 C3         -3.1487    0.4152    1.2196 C.ar      1 MOL        -0.1091
      4 C4         -1.4367   -1.5819    0.2693 C.ar      1 MOL        -0.1090
      5 C5         -3.5799   -0.9097    1.1626 C.ar      1 MOL         0.0586
      6 C6         -2.7266   -1.9051    0.6889 C.ar      1 MOL         0.0584
      7 C7         -5.2389   -2.4982    1.5123 C.ar      1 MOL         0.0855
      8 C8         -4.3856   -3.4936    1.0385 C.ar      1 MOL         0.0857
      9 C9         -6.5287   -2.8214    1.9320 C.ar      1 MOL         0.0271
     10 C10        -4.8168   -4.8184    0.9815 C.ar      1 MOL         0.0271
     11 C11        -6.9616   -4.1465    1.8755 C.ar      1 MOL         0.0198
     12 C12        -6.1071   -5.1433    1.4010 C.ar      1 MOL         0.0198
     13 O1         -4.8561   -1.1828    1.5855 O.3       1 MOL        -0.2068
     14 O2         -3.1093   -3.2205    0.6157 O.3       1 MOL        -0.2070
     15 Cl1        -7.5652   -1.5541    2.5155 Cl        1 MOL        -0.0239
     16 Cl2        -3.7240   -6.0323    0.3870 Cl        1 MOL        -0.0239
     17 Cl3        -8.5735   -4.5517    2.3985 Cl        1 MOL        -0.0313
     18 Cl4        -6.6450   -6.7989    1.3310 Cl        1 MOL        -0.0311
     19 H1         -1.5177    1.7705    0.8426 H         1 MOL         0.1436
     20 H2          0.0000   -0.0000    0.0001 H         1 MOL         0.1437
     21 H3         -3.8085    1.1963    1.5873 H         1 MOL         0.1598
     22 H4         -0.7659   -2.3527   -0.1002 H         1 MOL         0.1597
@<TRIPOS>BOND
     1    1    2 ar
     2    1    3 ar
     3    2    4 ar
     4    3    5 ar
     5    4    6 ar
     6    5    6 ar
     7    5   13 1
     8    6   14 1
     9    7    8 ar
    10    7    9 ar
    11    7   13 1
    12    8   10 ar
    13    8   14 1
    14    9   11 ar
    15    9   15 1
    16   10   12 ar
    17   10   16 1
    18   11   12 ar
    19   11   17 1
    20   12   18 1
    21    1   19 1
    22    2   20 1
    23    3   21 1
    24    4   22 1
