@<TRIPOS>MOLECULE
23_dimethylpyridine
   17    17     0     0     0
SMALL
USER_CHARGES

@<TRIPOS>ATOM
      1 C1          0.1724   -0.3894    0.9968 C.ar      1 MOL        -0.2494
      2 C2          1.2778    0.0093    1.7402 C.ar      1 MOL        -0.0921
      3 C3         -0.7010   -1.2993    1.5704 C.ar      1 MOL         0.3947
      4 C4          1.4732   -0.5069    3.0164 C.ar      1 MOL        -0.1858
      5 C5          0.5416   -1.4116    3.4997 C.ar      1 MOL         0.4108
      6 C6          2.6558   -0.0840    3.8176 C.3       1 MOL        -0.0552
      7 C7          0.7005   -1.9988    4.8641 C.3       1 MOL        -0.1453
      8 N1         -0.5443   -1.8226    2.8071 N.ar      1 MOL        -0.6662
      9 H1         -0.0000    0.0001    0.0001 H         1 MOL         0.1419
     10 H2          1.9804    0.7221    1.3173 H         1 MOL         0.1361
     11 H3         -1.5787   -1.6417    1.0322 H         1 MOL         0.0203
     12 H4          2.7291    1.0106    3.8449 H         1 MOL         0.0448
     13 H5          2.5922   -0.4529    4.8502 H         1 MOL         0.0448
     14 H6          3.5882   -0.4835    3.3961 H         1 MOL         0.0448
     15 H7          1.4982   -1.4813    5.4094 H         1 MOL         0.0520
     16 H8         -0.2284   -1.9164    5.4414 H         1 MOL         0.0520
     17 H9          0.9492   -3.0658    4.8094 H         1 MOL         0.0520
@<TRIPOS>BOND
     1    1    2 ar
     2    1    3 ar
     3    2    4 ar
     4    3    8 ar
     5    4    5 ar
     6    4    6 1
     7    5    7 1
     8    5    8 ar
     9    1    9 1
    10    2   10 1
    11    3   11 1
    12    6   12 1
    13    6   13 1
    14    6   14 1
    15    7   15 1
    16    7   16 1
    17    7   17 1
