@<TRIPOS>MOLECULE
hexanoic_acid
   20    19     0     0     0
SMALL
USER_CHARGES

@<TRIPOS>ATOM
      1 C1          1.8843   -2.4290   -4.5140 C.2       1 MOL         0.6342
      2 C2         -0.0300    2.7185   -1.1894 C.3       1 MOL        -0.0907
      3 C3          2.1156   -1.2087   -3.6520 C.3       1 MOL        -0.1238
      4 C4         -0.2814    1.4698   -2.0194 C.3       1 MOL        -0.0767
      5 C5          0.8037   -0.5226   -3.2726 C.3       1 MOL        -0.0766
      6 C6          1.0009    0.7710   -2.4773 C.3       1 MOL        -0.0785
      7 O1          0.7924   -2.8562   -4.8621 O.2       1 MOL        -0.5482
      8 O2          3.0575   -3.0190   -4.8634 O.3       1 MOL        -0.6131
      9 H1         -0.9774    3.1135   -0.8087 H         1 MOL         0.0335
     10 H2          0.6137    2.4978   -0.3322 H         1 MOL         0.0335
     11 H3          0.4412    3.5067   -1.7836 H         1 MOL         0.0335
     12 H4          2.6476   -1.5334   -2.7518 H         1 MOL         0.0785
     13 H5          2.7463   -0.5095   -4.2121 H         1 MOL         0.0785
     14 H6         -0.8618    0.7615   -1.4157 H         1 MOL         0.0388
     15 H7         -0.9071    1.7233   -2.8822 H         1 MOL         0.0388
     16 H8          0.1670   -1.2178   -2.7125 H         1 MOL         0.0555
     17 H9          0.2474   -0.2779   -4.1867 H         1 MOL         0.0555
     18 H10         1.5846    1.4685   -3.0911 H         1 MOL         0.0421
     19 H11         1.6127    0.5544   -1.5928 H         1 MOL         0.0421
     20 H12         2.9670   -3.8213   -5.4212 H         1 MOL         0.4431
@<TRIPOS>BOND
     1    1    3 1
     2    1    7 2
     3    1    8 1
     4    2    4 1
     5    3    5 1
     6    4    6 1
     7    5    6 1
     8    2    9 1
     9    2   10 1
    10    2   11 1
    11    3   12 1
    12    3   13 1
    13    4   14 1
    14    4   15 1
    15    5   16 1
    16    5   17 1
    17    6   18 1
    18    6   19 1
    19    8   20 1
