@<TRIPOS>MOLECULE
nonan_2_one
   28    27     0     0     0
SMALL
USER_CHARGES

@<TRIPOS>ATOM
      1 C1          2.0326   -2.5792    0.1205 C.2       1 MOL         0.5592
      2 C2          2.2867   -3.2378   -1.2101 C.3       1 MOL        -0.2005
      3 C3          3.5737    4.5334    5.2229 C.3       1 MOL        -0.0895
      4 C4          2.6298   -1.2050    0.3478 C.3       1 MOL        -0.1784
      5 C5          2.9873    3.1479    5.0042 C.3       1 MOL        -0.0785
      6 C6          2.3683   -0.6660    1.7508 C.3       1 MOL        -0.0697
      7 C7          3.2702    2.6364    3.5920 C.3       1 MOL        -0.0769
      8 C8          2.9612    0.7296    1.9633 C.3       1 MOL        -0.0799
      9 C9          2.7075    1.2289    3.3872 C.3       1 MOL        -0.0749
     10 O1          1.3756   -3.1425    0.9962 O.2       1 MOL        -0.5289
     11 H1          1.6368   -4.1112   -1.3156 H         1 MOL         0.0618
     12 H2          3.3284   -3.5603   -1.2727 H         1 MOL         0.0618
     13 H3          2.0579   -2.5385   -2.0181 H         1 MOL         0.0618
     14 H4          3.1440    5.2562    4.5221 H         1 MOL         0.0314
     15 H5          4.6599    4.5260    5.0865 H         1 MOL         0.0314
     16 H6          3.3615    4.8785    6.2397 H         1 MOL         0.0314
     17 H7          2.2261   -0.5205   -0.4073 H         1 MOL         0.0627
     18 H8          3.7082   -1.2747    0.1656 H         1 MOL         0.0627
     19 H9          3.4116    2.4574    5.7423 H         1 MOL         0.0380
     20 H10         1.9055    3.1838    5.1777 H         1 MOL         0.0380
     21 H11         2.8132   -1.3587    2.4757 H         1 MOL         0.0480
     22 H12         1.2916   -0.6431    1.9548 H         1 MOL         0.0480
     23 H13         2.8264    3.3199    2.8578 H         1 MOL         0.0389
     24 H14         4.3524    2.6291    3.4138 H         1 MOL         0.0389
     25 H15         2.5217    1.4352    1.2486 H         1 MOL         0.0441
     26 H16         4.0407    0.7031    1.7709 H         1 MOL         0.0441
     27 H17         3.1696    0.5409    4.1055 H         1 MOL         0.0375
     28 H18         1.6294    1.2311    3.5888 H         1 MOL         0.0375
@<TRIPOS>BOND
     1    1    2 1
     2    1    4 1
     3    1   10 2
     4    3    5 1
     5    4    6 1
     6    5    7 1
     7    6    8 1
     8    7    9 1
     9    8    9 1
    10    2   11 1
    11    2   12 1
    12    2   13 1
    13    3   14 1
    14    3   15 1
    15    3   16 1
    16    4   17 1
    17    4   18 1
    18    5   19 1
    19    5   20 1
    20    6   21 1
    21    6   22 1
    22    7   23 1
    23    7   24 1
    24    8   25 1
    25    8   26 1
    26    9   27 1
    27    9   28 1
