@<TRIPOS>MOLECULE
caffeine
   24    25     0     0     0
SMALL
USER_CHARGES

@<TRIPOS>ATOM
      1 C1          5.1110    0.7770   -0.9260 C.2       1 MOL         0.4437
      2 C2          3.6440    2.3850   -1.2370 C.2       1 MOL        -0.3498
      3 C3          3.0450    1.2360   -0.7980 C.2       1 MOL         0.4854
      4 C4          2.9520    3.5990   -1.5260 C.2       1 MOL         0.7644
      5 C5          0.8630    2.2900   -0.8430 C.2       1 MOL         0.8141
      6 C6          6.0480    2.9530   -1.7320 C.3       1 MOL         0.0103
      7 C7          1.0820   -0.0910   -0.1250 C.3       1 MOL         0.0904
      8 C8          0.7180    4.6350   -1.5600 C.3       1 MOL         0.0794
      9 N1          3.9560    0.2330   -0.6040 N.2       1 MOL        -0.6856
     10 N2          4.9730    2.0840   -1.3170 N.pl3     1 MOL        -0.1493
     11 N3          1.6740    1.1550   -0.5930 N.am      1 MOL        -0.4159
     12 N4          1.5560    3.4680   -1.3040 N.am      1 MOL        -0.4837
     13 O1          3.5080    4.6220   -1.9180 O.2       1 MOL        -0.6313
     14 O2         -0.3620    2.2780   -0.6770 O.2       1 MOL        -0.6381
     15 H1          6.0710    0.2800   -0.8980 H         1 MOL         0.0710
     16 H2          6.1690    2.8480   -2.8130 H         1 MOL         0.0546
     17 H3          5.8010    3.9870   -1.4730 H         1 MOL         0.1041
     18 H4          6.9670    2.6640   -1.2130 H         1 MOL         0.0546
     19 H5          1.0570   -0.1080    0.9680 H         1 MOL         0.0455
     20 H6          1.6690   -0.9440   -0.4760 H         1 MOL         0.0634
     21 H7          0.0600   -0.1900   -0.5020 H         1 MOL         0.0815
     22 H8          0.3750    4.6310   -2.5980 H         1 MOL         0.0459
     23 H9          1.2830    5.5530   -1.3790 H         1 MOL         0.0743
     24 H10        -0.1550    4.6250   -0.9010 H         1 MOL         0.0714
@<TRIPOS>BOND
     1    1    9 2
     2    1   10 1
     3    2    3 2
     4    2    4 1
     5    2   10 1
     6    3    9 1
     7    3   11 1
     8    4   12 am
     9    4   13 2
    10    5   11 am
    11    5   12 am
    12    5   14 2
    13    6   10 1
    14    7   11 1
    15    8   12 1
    16    1   15 1
    17    6   16 1
    18    6   17 1
    19    6   18 1
    20    7   19 1
    21    7   20 1
    22    7   21 1
    23    8   22 1
    24    8   23 1
    25    8   24 1
