@<TRIPOS>MOLECULE
methyl_ethyl_ether
   12    11     0     0     0
SMALL
USER_CHARGES

@<TRIPOS>ATOM
      1 C1          1.0662   -2.6494    2.1722 C.3       1 MOL        -0.1145
      2 C2          0.1829    0.9026    1.8285 C.3       1 MOL         0.1190
      3 C3          1.2893   -1.1660    1.9689 C.3       1 MOL         0.1285
      4 O1          0.0353   -0.4987    2.0141 O.3       1 MOL        -0.4232
      5 H1          2.0139   -3.1942    2.1424 H         1 MOL         0.0419
      6 H2          0.5799   -2.8383    3.1349 H         1 MOL         0.0419
      7 H3          0.4041   -3.0497    1.3973 H         1 MOL         0.0419
      8 H4          1.1930    1.2045    2.1156 H         1 MOL         0.0304
      9 H5         -0.5542    1.4314    2.4381 H         1 MOL         0.0304
     10 H6          0.0195    1.1407    0.7748 H         1 MOL         0.0304
     11 H7          1.7540   -0.9775    0.9965 H         1 MOL         0.0367
     12 H8          1.9318   -0.7627    2.7574 H         1 MOL         0.0367
@<TRIPOS>BOND
     1    1    3 1
     2    2    4 1
     3    3    4 1
     4    1    5 1
     5    1    6 1
     6    1    7 1
     7    2    8 1
     8    2    9 1
     9    2   10 1
    10    3   11 1
    11    3   12 1
