@<TRIPOS>MOLECULE
3_methylpentane
   20    19     0     0     0
SMALL
USER_CHARGES

@<TRIPOS>ATOM
      1 C1          0.3901   -0.9757   -0.3684 C.3       1 MOL        -0.0892
      2 C2         -1.2993   -4.9745   -3.1039 C.3       1 MOL        -0.0892
      3 C3          0.5423   -3.9826   -0.8792 C.3       1 MOL        -0.0868
      4 C4         -0.7741   -1.8070   -0.8892 C.3       1 MOL        -0.0742
      5 C5         -1.6015   -3.7656   -2.2290 C.3       1 MOL        -0.0742
      6 C6         -0.3423   -3.0436   -1.7051 C.3       1 MOL        -0.0637
      7 H1          1.0672   -0.6943   -1.1809 H         1 MOL         0.0315
      8 H2          0.0158   -0.0561    0.0935 H         1 MOL         0.0315
      9 H3          0.9626   -1.5141    0.3920 H         1 MOL         0.0315
     10 H4         -2.2267   -5.3645   -3.5358 H         1 MOL         0.0315
     11 H5         -0.8401   -5.7840   -2.5296 H         1 MOL         0.0315
     12 H6         -0.6293   -4.7068   -3.9271 H         1 MOL         0.0315
     13 H7          0.0068   -4.3596   -0.0015 H         1 MOL         0.0322
     14 H8          1.4483   -3.4766   -0.5330 H         1 MOL         0.0322
     15 H9          0.8738   -4.8417   -1.4699 H         1 MOL         0.0322
     16 H10        -1.3926   -1.1583   -1.5220 H         1 MOL         0.0372
     17 H11        -1.4026   -2.1143   -0.0443 H         1 MOL         0.0372
     18 H12        -2.2324   -4.0792   -1.3884 H         1 MOL         0.0372
     19 H13        -2.1967   -3.0617   -2.8239 H         1 MOL         0.0372
     20 H14         0.2398   -2.6982   -2.5696 H         1 MOL         0.0432
@<TRIPOS>BOND
     1    1    4 1
     2    2    5 1
     3    3    6 1
     4    4    6 1
     5    5    6 1
     6    1    7 1
     7    1    8 1
     8    1    9 1
     9    2   10 1
    10    2   11 1
    11    2   12 1
    12    3   13 1
    13    3   14 1
    14    3   15 1
    15    4   16 1
    16    4   17 1
    17    5   18 1
    18    5   19 1
    19    6   20 1
