@<TRIPOS>MOLECULE
225_trimethylhexane
   29    28     0     0     0
SMALL
USER_CHARGES

@<TRIPOS>ATOM
      1 C1         -2.4692    0.4894   -2.1352 C.3       1 MOL        -0.0867
      2 C2         -0.7788    0.2465   -0.3072 C.3       1 MOL        -0.0867
      3 C3          2.0242    3.4770   -2.4216 C.3       1 MOL        -0.0831
      4 C4          0.4806    3.5968   -4.3836 C.3       1 MOL        -0.0831
      5 C5          0.1738    5.1534   -2.4419 C.3       1 MOL        -0.0831
      6 C6         -0.0453    1.2039   -2.5132 C.3       1 MOL        -0.0713
      7 C7         -0.3321    2.6686   -2.1508 C.3       1 MOL        -0.0665
      8 C8         -0.9989    0.2079   -1.8218 C.3       1 MOL        -0.0668
      9 C9          0.5651    3.7244   -2.8538 C.3       1 MOL        -0.0548
     10 H1         -2.6879    0.3339   -3.1958 H         1 MOL         0.0319
     11 H2         -2.7404    1.5186   -1.8771 H         1 MOL         0.0319
     12 H3         -3.1226   -0.1838   -1.5696 H         1 MOL         0.0319
     13 H4         -1.0036    1.2373    0.1022 H         1 MOL         0.0319
     14 H5         -1.4203   -0.4830    0.1985 H         1 MOL         0.0319
     15 H6          0.2597    0.0040   -0.0582 H         1 MOL         0.0319
     16 H7          2.1361    3.5695   -1.3354 H         1 MOL         0.0325
     17 H8          2.3573    2.4730   -2.7080 H         1 MOL         0.0325
     18 H9          2.7052    4.1978   -2.8883 H         1 MOL         0.0325
     19 H10         0.7105    2.5759   -4.7080 H         1 MOL         0.0325
     20 H11        -0.5160    3.8533   -4.7574 H         1 MOL         0.0325
     21 H12         1.1927    4.2699   -4.8749 H         1 MOL         0.0325
     22 H13         0.1702    5.2633   -1.3517 H         1 MOL         0.0325
     23 H14        -0.8193    5.4273   -2.8120 H         1 MOL         0.0325
     24 H15         0.8806    5.8869   -2.8469 H         1 MOL         0.0325
     25 H16         0.9890    0.9516   -2.2515 H         1 MOL         0.0387
     26 H17        -0.1417    1.0715   -3.5964 H         1 MOL         0.0387
     27 H18        -0.2215    2.7923   -1.0663 H         1 MOL         0.0387
     28 H19        -1.3836    2.8868   -2.3803 H         1 MOL         0.0387
     29 H20        -0.7614   -0.8057   -2.1690 H         1 MOL         0.0435
@<TRIPOS>BOND
     1    1    8 1
     2    2    8 1
     3    3    9 1
     4    4    9 1
     5    5    9 1
     6    6    7 1
     7    6    8 1
     8    7    9 1
     9    1   10 1
    10    1   11 1
    11    1   12 1
    12    2   13 1
    13    2   14 1
    14    2   15 1
    15    3   16 1
    16    3   17 1
    17    3   18 1
    18    4   19 1
    19    4   20 1
    20    4   21 1
    21    5   22 1
    22    5   23 1
    23    5   24 1
    24    6   25 1
    25    6   26 1
    26    7   27 1
    27    7   28 1
    28    8   29 1
