@<TRIPOS>MOLECULE
12_diethoxyethane
   22    21     0     0     0
SMALL
USER_CHARGES

@<TRIPOS>ATOM
      1 C1          0.3016    0.5416    3.9174 C.3       1 MOL        -0.1049
      2 C2         -3.1659   -3.7253   -0.0467 C.3       1 MOL        -0.1049
      3 C3          0.3152    0.8016    2.4261 C.3       1 MOL         0.1317
      4 C4         -3.2682   -2.2457   -0.3502 C.3       1 MOL         0.1317
      5 C5         -0.8936    0.4506    0.4416 C.3       1 MOL         0.1274
      6 C6         -2.1461   -0.1936   -0.1209 C.3       1 MOL         0.1274
      7 O1         -0.8526    0.2362    1.8472 O.3       1 MOL        -0.4197
      8 O2         -2.1048   -1.5918    0.1373 O.3       1 MOL        -0.4197
      9 H1          1.1896    0.9645    4.3953 H         1 MOL         0.0431
     10 H2         -0.5901    0.9799    4.3775 H         1 MOL         0.0431
     11 H3          0.2691   -0.5338    4.1213 H         1 MOL         0.0431
     12 H4         -4.0483   -4.2598   -0.4093 H         1 MOL         0.0431
     13 H5         -2.2747   -4.1548   -0.5160 H         1 MOL         0.0431
     14 H6         -3.0698   -3.8923    1.0312 H         1 MOL         0.0431
     15 H7          1.1948    0.3430    1.9646 H         1 MOL         0.0305
     16 H8          0.3238    1.8768    2.2238 H         1 MOL         0.0305
     17 H9         -4.1464   -1.8135    0.1387 H         1 MOL         0.0305
     18 H10        -3.3402   -2.0790   -1.4291 H         1 MOL         0.0305
     19 H11        -0.8901    1.5299    0.2612 H         1 MOL         0.0376
     20 H12         0.0000    0.0000    0.0000 H         1 MOL         0.0376
     21 H13        -2.2121   -0.0487   -1.2038 H         1 MOL         0.0376
     22 H14        -3.0378    0.2178    0.3611 H         1 MOL         0.0376
@<TRIPOS>BOND
     1    1    3 1
     2    2    4 1
     3    3    7 1
     4    4    8 1
     5    5    6 1
     6    5    7 1
     7    6    8 1
     8    1    9 1
     9    1   10 1
    10    1   11 1
    11    2   12 1
    12    2   13 1
    13    2   14 1
    14    3   15 1
    15    3   16 1
    16    4   17 1
    17    4   18 1
    18    5   19 1
    19    5   20 1
    20    6   21 1
    21    6   22 1
