@<TRIPOS>MOLECULE
triethylamine
   22    21     0     0     0
SMALL
USER_CHARGES

@<TRIPOS>ATOM
      1 C1         -1.1669   -1.4792    0.9426 C.3       1 MOL        -0.1002
      2 C2          0.9999    1.8471    2.5380 C.3       1 MOL        -0.1002
      3 C3          2.8801   -1.9413    2.1938 C.3       1 MOL        -0.1002
      4 C4         -0.2717   -0.2549    1.0309 C.3       1 MOL         0.1697
      5 C5          1.7513    0.6707    1.9381 C.3       1 MOL         0.1697
      6 C6          1.6567   -1.6543    1.3398 C.3       1 MOL         0.1697
      7 N1          0.9013   -0.5170    1.8640 N.3       1 MOL        -0.7322
      8 H1         -0.6358   -2.3270    0.4968 H         1 MOL         0.0365
      9 H2         -1.5255   -1.7814    1.9324 H         1 MOL         0.0365
     10 H3         -2.0405   -1.2633    0.3191 H         1 MOL         0.0365
     11 H4          0.1271    2.1106    1.9311 H         1 MOL         0.0365
     12 H5          0.6562    1.6227    3.5535 H         1 MOL         0.0365
     13 H6          1.6522    2.7247    2.5892 H         1 MOL         0.0365
     14 H7          3.5596   -1.0826    2.2137 H         1 MOL         0.0365
     15 H8          2.5978   -2.1791    3.2250 H         1 MOL         0.0365
     16 H9          3.4301   -2.7970    1.7891 H         1 MOL         0.0365
     17 H10        -0.8319    0.5862    1.4518 H         1 MOL         0.0325
     18 H11         0.0569    0.0387    0.0285 H         1 MOL         0.0325
     19 H12         2.6342    0.4446    2.5447 H         1 MOL         0.0325
     20 H13         2.1011    0.9266    0.9327 H         1 MOL         0.0325
     21 H14         1.0076   -2.5355    1.3113 H         1 MOL         0.0325
     22 H15         1.9634   -1.4395    0.3110 H         1 MOL         0.0325
@<TRIPOS>BOND
     1    1    4 1
     2    2    5 1
     3    3    6 1
     4    4    7 1
     5    5    7 1
     6    6    7 1
     7    1    8 1
     8    1    9 1
     9    1   10 1
    10    2   11 1
    11    2   12 1
    12    2   13 1
    13    3   14 1
    14    3   15 1
    15    3   16 1
    16    4   17 1
    17    4   18 1
    18    5   19 1
    19    5   20 1
    20    6   21 1
    21    6   22 1
