@<TRIPOS>MOLECULE
cyanuric
   12    12     0     0     0
SMALL
USER_CHARGES

@<TRIPOS>ATOM
      1 C1         -0.4150   -0.7480    1.8790 C.2       1 MOL         0.8209
      2 C2          0.3980   -3.0670    2.2040 C.2       1 MOL         0.8215
      3 C3          0.7610   -1.9190    0.0380 C.2       1 MOL         0.8210
      4 N1         -0.2360   -1.9040    2.6350 N.am      1 MOL        -0.5913
      5 N2          0.1070   -0.8200    0.5900 N.am      1 MOL        -0.5907
      6 N3          0.8740   -3.0090    0.8970 N.am      1 MOL        -0.5914
      7 O1         -0.9860    0.2530    2.3130 O.2       1 MOL        -0.6056
      8 O2          0.5270   -4.0610    2.9190 O.2       1 MOL        -0.6054
      9 O3          1.2020   -1.9250   -1.1120 O.2       1 MOL        -0.6059
     10 H1         -0.5990   -1.8980    3.5830 H         1 MOL         0.3755
     11 H2          0.0000    0.0000    0.0000 H         1 MOL         0.3758
     12 H3          1.3440   -3.8350    0.5380 H         1 MOL         0.3755
@<TRIPOS>BOND
     1    1    4 am
     2    1    5 am
     3    1    7 2
     4    2    4 am
     5    2    6 am
     6    2    8 2
     7    3    5 am
     8    3    6 am
     9    3    9 2
    10    4   10 1
    11    5   11 1
    12    6   12 1
