@<TRIPOS>MOLECULE
CUP08048_AM1BCC_v1_0
   22    22     0     0     0
SMALL
USER_CHARGES

@<TRIPOS>ATOM
      1 C1          1.8268   -1.0097   -0.1200 C.ar      1 MOL        -0.1513
      2 C2          0.7657   -0.4435    0.5967 C.ar      1 MOL        -0.0905
      3 C3          2.8796   -1.6470    1.9488 C.ar      1 MOL        -0.1831
      4 C4          2.8919   -1.6159    0.5484 C.ar      1 MOL         0.0864
      5 C5          0.7582   -0.4772    1.9915 C.ar      1 MOL        -0.0136
      6 C6          1.8196   -1.0814    2.6693 C.ar      1 MOL         0.0480
      7 C7          4.2263   -2.2982   -1.4643 C.2       1 MOL         0.6617
      8 C8          5.8179   -3.1293   -3.2458 C.3       1 MOL        -0.0852
      9 C9          5.5368   -3.0126   -1.7580 C.3       1 MOL        -0.1483
     10 N1          3.9961   -2.2080   -0.0993 N.am      1 MOL        -0.4764
     11 O1          3.4992   -1.8723   -2.3533 O.2       1 MOL        -0.5772
     12 Cl1        -0.5815    0.2400    2.8110 Cl        1 MOL        -0.0711
     13 Cl2         1.8891   -1.1659    4.3946 Cl        1 MOL        -0.0723
     14 H1          1.7863   -0.9574   -1.2044 H         1 MOL         0.1822
     15 H2         -0.0524    0.0228    0.0519 H         1 MOL         0.1543
     16 H3          3.6963   -2.1127    2.4950 H         1 MOL         0.1463
     17 H4          5.0247   -3.6885   -3.7530 H         1 MOL         0.0486
     18 H5          6.7654   -3.6500   -3.4150 H         1 MOL         0.0486
     19 H6          5.8827   -2.1407   -3.7124 H         1 MOL         0.0486
     20 H7          6.3505   -2.4584   -1.2767 H         1 MOL         0.0637
     21 H8          5.4925   -4.0148   -1.3168 H         1 MOL         0.0637
     22 H9          4.7030   -2.6137    0.5022 H         1 MOL         0.3170
@<TRIPOS>BOND
     1    1    2 ar
     2    1    4 ar
     3    2    5 ar
     4    3    4 ar
     5    3    6 ar
     6    4   10 1
     7    5    6 ar
     8    5   12 1
     9    6   13 1
    10    7    9 1
    11    7   10 am
    12    7   11 2
    13    8    9 1
    14    1   14 1
    15    2   15 1
    16    3   16 1
    17    8   17 1
    18    8   18 1
    19    8   19 1
    20    9   20 1
    21    9   21 1
    22   10   22 1
