@<TRIPOS>MOLECULE
isoamyl_formate
   20    19     0     0     0
SMALL
USER_CHARGES

@<TRIPOS>ATOM
      1 C1         -1.3181   -2.1660   -5.8535 C.2       1 MOL         0.6286
      2 C2         -2.1890   -1.7197   -0.7224 C.3       1 MOL        -0.0887
      3 C3         -0.2099   -3.2506   -0.7601 C.3       1 MOL        -0.0887
      4 C4         -0.3808   -1.3238   -2.4187 C.3       1 MOL        -0.0933
      5 C5         -1.1136   -2.0995   -3.5067 C.3       1 MOL         0.1372
      6 C6         -0.6860   -1.8165   -0.9949 C.3       1 MOL        -0.0642
      7 O1         -2.1123   -3.0935   -5.8506 O.2       1 MOL        -0.5404
      8 O2         -0.7406   -1.5710   -4.7733 O.3       1 MOL        -0.4487
      9 H1         -0.9535   -1.6723   -6.7675 H         1 MOL         0.0786
     10 H2         -2.4199   -2.0310    0.3019 H         1 MOL         0.0340
     11 H3         -2.7592   -2.3568   -1.4070 H         1 MOL         0.0340
     12 H4         -2.5413   -0.6899   -0.8443 H         1 MOL         0.0340
     13 H5         -0.6464   -3.9387   -1.4920 H         1 MOL         0.0340
     14 H6         -0.4953   -3.5956    0.2396 H         1 MOL         0.0340
     15 H7          0.8796   -3.3251   -0.8289 H         1 MOL         0.0340
     16 H8          0.6985   -1.3957   -2.6079 H         1 MOL         0.0540
     17 H9         -0.6213   -0.2567   -2.5134 H         1 MOL         0.0540
     18 H10        -0.8430   -3.1597   -3.4801 H         1 MOL         0.0584
     19 H11        -2.1983   -2.0026   -3.4059 H         1 MOL         0.0584
     20 H12        -0.1722   -1.1627   -0.2788 H         1 MOL         0.0506
@<TRIPOS>BOND
     1    1    7 2
     2    1    8 1
     3    2    6 1
     4    3    6 1
     5    4    5 1
     6    4    6 1
     7    5    8 1
     8    1    9 1
     9    2   10 1
    10    2   11 1
    11    2   12 1
    12    3   13 1
    13    3   14 1
    14    3   15 1
    15    4   16 1
    16    4   17 1
    17    5   18 1
    18    5   19 1
    19    6   20 1
