@<TRIPOS>MOLECULE
ethyl
   22    22     0     0     0
SMALL
USER_CHARGES

@<TRIPOS>ATOM
      1 C1          1.8850   -1.0360   -0.1120 C.ar      1 MOL        -0.0384
      2 C2          2.8780   -1.6520    2.0020 C.ar      1 MOL        -0.0295
      3 C3          0.8070   -0.4630    0.5610 C.ar      1 MOL        -0.1763
      4 C4          1.8000   -1.0790    2.6760 C.ar      1 MOL        -0.2346
      5 C5          2.9210   -1.6310    0.6080 C.ar      1 MOL        -0.1739
      6 C6          0.7640   -0.4840    1.9550 C.ar      1 MOL         0.1582
      7 C7          4.0460   -2.2280   -0.0940 C.2       1 MOL         0.6520
      8 C8          6.9980   -3.8980    1.3190 C.3       1 MOL        -0.1007
      9 C9          6.1160   -3.3760    0.2050 C.3       1 MOL         0.1405
     10 O1          4.1680   -2.2560   -1.3250 O.2       1 MOL        -0.5499
     11 O2         -0.2890    0.0740    2.6120 O.3       1 MOL        -0.4905
     12 O3          4.9580   -2.7580    0.7770 O.3       1 MOL        -0.4449
     13 H1          1.9090   -1.0150   -1.1990 H         1 MOL         0.1616
     14 H2          3.6800   -2.1130    2.5730 H         1 MOL         0.1565
     15 H3          0.0030   -0.0010   -0.0060 H         1 MOL         0.1576
     16 H4          1.7710   -1.0990    3.7620 H         1 MOL         0.1405
     17 H5          7.3240   -3.0830    1.9720 H         1 MOL         0.0473
     18 H6          6.4630   -4.6400    1.9200 H         1 MOL         0.0474
     19 H7          7.8820   -4.3970    0.9090 H         1 MOL         0.0475
     20 H8          5.7930   -4.1960   -0.4440 H         1 MOL         0.0528
     21 H9          6.6520   -2.6340   -0.3940 H         1 MOL         0.0525
     22 H10        -0.1750   -0.0190    3.5710 H         1 MOL         0.4243
@<TRIPOS>BOND
     1    1    3 ar
     2    1    5 ar
     3    2    4 ar
     4    2    5 ar
     5    3    6 ar
     6    4    6 ar
     7    5    7 1
     8    6   11 1
     9    7   10 2
    10    7   12 1
    11    8    9 1
    12    9   12 1
    13    1   13 1
    14    2   14 1
    15    3   15 1
    16    4   16 1
    17    8   17 1
    18    8   18 1
    19    8   19 1
    20    9   20 1
    21    9   21 1
    22   11   22 1
