@<TRIPOS>MOLECULE
1,2,3,4-tetrachloro-5-(3,4,5-trichlorophenyl)benzene
   22    23     0     0     0
SMALL
USER_CHARGES

@<TRIPOS>ATOM
      1 C1          1.8851   -1.0363   -0.1124 C.ar      1 MOL        -0.0964
      2 C2          0.7638   -0.4841    1.9551 C.ar      1 MOL        -0.0951
      3 C3         -0.1535    1.5111   -0.4870 C.ar      1 MOL        -0.0969
      4 C4          0.8066   -0.4630    0.5610 C.ar      1 MOL        -0.0356
      5 C5         -0.2678    0.1538   -0.1865 C.ar      1 MOL        -0.0292
      6 C6          2.9210   -1.6309    0.6081 C.ar      1 MOL         0.0208
      7 C7          1.7997   -1.0786    2.6757 C.ar      1 MOL         0.0215
      8 C8         -1.1621    2.1538   -1.2048 C.ar      1 MOL         0.0203
      9 C9         -1.3907   -0.5608   -0.6041 C.ar      1 MOL         0.0353
     10 C10         2.8783   -1.6520    2.0022 C.ar      1 MOL         0.0226
     11 C11        -2.2849    1.4393   -1.6224 C.ar      1 MOL         0.0267
     12 C12        -2.3992    0.0819   -1.3220 C.ar      1 MOL         0.0191
     13 Cl1         4.2249   -2.3222   -0.2962 Cl        1 MOL        -0.0547
     14 Cl2         1.6774   -1.0662    4.4017 Cl        1 MOL        -0.0566
     15 Cl3        -0.9483    3.8389   -1.5377 Cl        1 MOL        -0.0503
     16 Cl4        -1.5122   -2.2553   -0.2187 Cl        1 MOL        -0.0404
     17 Cl5         4.1688   -2.3929    2.9000 Cl        1 MOL        -0.0378
     18 Cl6        -3.5363    2.2556   -2.5158 Cl        1 MOL        -0.0329
     19 Cl7        -3.8006   -0.8127   -1.8435 Cl        1 MOL        -0.0334
     20 H1          1.9157   -1.0185   -1.2005 H         1 MOL         0.1628
     21 H2         -0.0791   -0.0354    2.4780 H         1 MOL         0.1633
     22 H3          0.7230    2.0686   -0.1611 H         1 MOL         0.1668
@<TRIPOS>BOND
     1    1    4 ar
     2    1    6 ar
     3    2    4 ar
     4    2    7 ar
     5    3    5 ar
     6    3    8 ar
     7    4    5 1
     8    5    9 ar
     9    6   10 ar
    10    6   13 1
    11    7   10 ar
    12    7   14 1
    13    8   11 ar
    14    8   15 1
    15    9   12 ar
    16    9   16 1
    17   10   17 1
    18   11   12 ar
    19   11   18 1
    20   12   19 1
    21    1   20 1
    22    2   21 1
    23    3   22 1
