@<TRIPOS>MOLECULE
methyl_isopropyl_ether
   15    14     0     0     0
SMALL
USER_CHARGES

@<TRIPOS>ATOM
      1 C1          1.0765    0.0499    0.1958 C.3       1 MOL        -0.1113
      2 C2          2.8427    1.0382    1.6976 C.3       1 MOL        -0.1113
      3 C3         -0.5911    2.1671    0.9830 C.3       1 MOL         0.1199
      4 C4          1.3532    0.9191    1.4130 C.3       1 MOL         0.1383
      5 O1          0.8123    2.2184    1.1940 O.3       1 MOL        -0.4218
      6 H1          1.4532   -0.9673    0.3403 H         1 MOL         0.0417
      7 H2          0.0000    0.0000    0.0000 H         1 MOL         0.0417
      8 H3          1.5401    0.4709   -0.7032 H         1 MOL         0.0417
      9 H4          3.2882    0.0592    1.8989 H         1 MOL         0.0417
     10 H5          3.0145    1.6858    2.5641 H         1 MOL         0.0417
     11 H6          3.3699    1.4961    0.8534 H         1 MOL         0.0417
     12 H7         -0.7946    1.9577   -0.0701 H         1 MOL         0.0301
     13 H8         -1.0386    3.1224    1.2686 H         1 MOL         0.0301
     14 H9         -1.0143    1.3701    1.5989 H         1 MOL         0.0301
     15 H10         0.8468    0.4961    2.2868 H         1 MOL         0.0456
@<TRIPOS>BOND
     1    1    4 1
     2    2    4 1
     3    3    5 1
     4    4    5 1
     5    1    6 1
     6    1    7 1
     7    1    8 1
     8    2    9 1
     9    2   10 1
    10    2   11 1
    11    3   12 1
    12    3   13 1
    13    3   14 1
    14    4   15 1
