@<TRIPOS>MOLECULE
DRG
   12    12     0     0     0
SMALL
USER_CHARGES

@<TRIPOS>ATOM
      1 C1         -0.7600   -9.6100   -2.9100 C.2       1 MOL        -0.1841
      2 C2         -0.0100   -8.8900   -1.9600 C.2       1 MOL        -0.1841
      3 C3          1.2700   -9.3600   -1.6000 C.2       1 MOL         0.5376
      4 O1          1.9300   -8.7300   -0.7700 O.2       1 MOL        -0.4902
      5 C4          1.8200  -10.5400   -2.1500 C.2       1 MOL        -0.1841
      6 C5          1.0700  -11.2600   -3.0900 C.2       1 MOL        -0.1841
      7 C6         -0.2100  -10.7900   -3.4600 C.2       1 MOL         0.5376
      8 O2         -0.8700  -11.4200   -4.2800 O.2       1 MOL        -0.4902
      9 H1         -1.6660   -9.2920   -3.1900 H         1 MOL         0.1604
     10 H2         -0.3800   -8.0580   -1.5470 H         1 MOL         0.1604
     11 H3          2.7280  -10.8550   -1.8740 H         1 MOL         0.1604
     12 H4          1.4370  -12.0980   -3.4950 H         1 MOL         0.1604
@<TRIPOS>BOND
     1    1    2 2
     2    1    7 1
     3    1    9 1
     4    2    3 1
     5    2   10 1
     6    3    4 2
     7    3    5 1
     8    5    6 2
     9    5   11 1
    10    6    7 1
    11    6   12 1
    12    7    8 2
