@<TRIPOS>MOLECULE
2_fluorophenol
   13    13     0     0     0
SMALL
USER_CHARGES

@<TRIPOS>ATOM
      1 C1          1.8846   -1.0376   -0.1090 C.ar      1 MOL        -0.1078
      2 C2          0.8176   -0.4410    0.5626 C.ar      1 MOL        -0.1434
      3 C3          2.9348   -1.6038    0.6137 C.ar      1 MOL        -0.1381
      4 C4          0.8008   -0.4105    1.9570 C.ar      1 MOL        -0.1221
      5 C5          2.9180   -1.5734    2.0082 C.ar      1 MOL         0.0985
      6 C6          1.8509   -0.9767    2.6799 C.ar      1 MOL         0.0356
      7 O1          3.9438   -2.1250    2.7122 O.3       1 MOL        -0.4909
      8 F1          1.8290   -0.9443    4.0195 F         1 MOL        -0.1476
      9 H1          1.8977   -1.0612   -1.1947 H         1 MOL         0.1394
     10 H2          0.0003    0.0003   -0.0001 H         1 MOL         0.1398
     11 H3          3.7632   -2.0668    0.0847 H         1 MOL         0.1557
     12 H4         -0.0296    0.0545    2.4802 H         1 MOL         0.1498
     13 H5          3.8456   -1.8854    3.6519 H         1 MOL         0.4311
@<TRIPOS>BOND
     1    1    2 ar
     2    1    3 ar
     3    2    4 ar
     4    3    5 ar
     5    4    6 ar
     6    5    6 ar
     7    5    7 1
     8    6    8 1
     9    1    9 1
    10    2   10 1
    11    3   11 1
    12    4   12 1
    13    7   13 1
