@<TRIPOS>MOLECULE
di_n_propyl_sulfide
   21    20     0     0     0
SMALL
USER_CHARGES

@<TRIPOS>ATOM
      1 C1         -0.3672   -0.3200    3.3261 C.3       1 MOL        -0.0917
      2 C2          6.2007   -3.4172    0.6460 C.3       1 MOL        -0.0917
      3 C3          1.1200   -0.3490    3.6472 C.3       1 MOL        -0.0764
      4 C4          5.7179   -2.5113    1.7694 C.3       1 MOL        -0.0764
      5 C5          1.8811   -1.2098    2.6451 C.3       1 MOL        -0.0087
      6 C6          4.2094   -2.3030    1.6966 C.3       1 MOL        -0.0087
      7 S1          3.6528   -1.2294    3.0399 S.3       1 MOL        -0.3137
      8 H1         -0.7955   -1.3269    3.3596 H         1 MOL         0.0358
      9 H2         -0.9000    0.3001    4.0539 H         1 MOL         0.0358
     10 H3         -0.5453    0.0968    2.3297 H         1 MOL         0.0358
     11 H4          5.9715   -2.9843   -0.3330 H         1 MOL         0.0358
     12 H5          7.2844   -3.5563    0.7106 H         1 MOL         0.0358
     13 H6          5.7275   -4.4026    0.7059 H         1 MOL         0.0358
     14 H7          1.2528   -0.7383    4.6639 H         1 MOL         0.0448
     15 H8          1.5024    0.6788    3.6361 H         1 MOL         0.0448
     16 H9          6.2405   -1.5499    1.6952 H         1 MOL         0.0448
     17 H10         5.9954   -2.9631    2.7295 H         1 MOL         0.0448
     18 H11         1.5110   -2.2400    2.6610 H         1 MOL         0.0683
     19 H12         1.7568   -0.8214    1.6292 H         1 MOL         0.0683
     20 H13         3.9285   -1.8411    0.7447 H         1 MOL         0.0683
     21 H14         3.6830   -3.2595    1.7768 H         1 MOL         0.0683
@<TRIPOS>BOND
     1    1    3 1
     2    2    4 1
     3    3    5 1
     4    4    6 1
     5    5    7 1
     6    6    7 1
     7    1    8 1
     8    1    9 1
     9    1   10 1
    10    2   11 1
    11    2   12 1
    12    2   13 1
    13    3   14 1
    14    3   15 1
    15    4   16 1
    16    4   17 1
    17    5   18 1
    18    5   19 1
    19    6   20 1
    20    6   21 1
