@<TRIPOS>MOLECULE
3_nitrophenol
   15    15     0     0     0
SMALL
USER_CHARGES

@<TRIPOS>ATOM
      1 C1          0.8324   -0.3948    0.5751 C.ar      1 MOL        -0.0962
      2 C2          1.8991   -1.0135   -0.0768 C.ar      1 MOL        -0.1097
      3 C3          0.8349   -0.2829    1.9655 C.ar      1 MOL        -0.1785
      4 C4          2.9708   -1.4085    2.0522 C.ar      1 MOL        -0.1024
      5 C5          2.9683   -1.5204    0.6618 C.ar      1 MOL        -0.1335
      6 C6          1.9042   -0.7896    2.7040 C.ar      1 MOL         0.1226
      7 N1          4.0546   -2.1496   -0.0021 N.pl3     1 MOL         0.3095
      8 O1          4.0327   -2.2391   -1.2534 O.3       1 MOL        -0.2007
      9 O2          5.0067   -2.5985    0.6809 O.2       1 MOL        -0.2007
     10 O3          1.9066   -0.6797    4.0606 O.3       1 MOL        -0.4873
     11 H1         -0.0002   -0.0000    0.0002 H         1 MOL         0.1500
     12 H2          1.8855   -1.0935   -1.1612 H         1 MOL         0.1695
     13 H3          0.0007    0.1998    2.4674 H         1 MOL         0.1454
     14 H4          3.8012   -1.8015    2.6344 H         1 MOL         0.1849
     15 H5          1.2264   -0.0337    4.3254 H         1 MOL         0.4272
@<TRIPOS>BOND
     1    1    2 ar
     2    1    3 ar
     3    2    5 ar
     4    3    6 ar
     5    4    5 ar
     6    4    6 ar
     7    5    7 1
     8    6   10 1
     9    7    8 1
    10    7    9 2
    11    1   11 1
    12    2   12 1
    13    3   13 1
    14    4   14 1
    15   10   15 1
