@<TRIPOS>MOLECULE
2_methoxyaniline
   18    18     0     0     0
SMALL
USER_CHARGES

@<TRIPOS>ATOM
      1 C1          1.8846   -1.0376   -0.1090 C.ar      1 MOL        -0.1246
      2 C2          0.8176   -0.4410    0.5626 C.ar      1 MOL        -0.1395
      3 C3          2.9348   -1.6038    0.6137 C.ar      1 MOL        -0.1653
      4 C4          0.8008   -0.4105    1.9570 C.ar      1 MOL        -0.1674
      5 C5          2.9180   -1.5734    2.0082 C.ar      1 MOL         0.1200
      6 C6          1.8509   -0.9767    2.6799 C.ar      1 MOL         0.0641
      7 C7          1.1868   -2.0307    4.7058 C.3       1 MOL         0.1232
      8 N1          3.9877   -2.1500    2.7269 N.pl3     1 MOL        -0.8084
      9 O1          1.8154   -0.9365    4.0419 O.3       1 MOL        -0.3424
     10 H1          1.8976   -1.0613   -1.1948 H         1 MOL         0.1311
     11 H2          0.0000   -0.0002   -0.0002 H         1 MOL         0.1315
     12 H3          3.7610   -2.0659    0.0795 H         1 MOL         0.1348
     13 H4         -0.0335    0.0561    2.4738 H         1 MOL         0.1348
     14 H5          1.9022   -2.8490    4.8186 H         1 MOL         0.0419
     15 H6          0.3242   -2.3643    4.1236 H         1 MOL         0.0419
     16 H7          0.8529   -1.7030    5.6931 H         1 MOL         0.0419
     17 H8          4.5475   -2.8510    2.2868 H         1 MOL         0.3913
     18 H9          4.1075   -1.9164    3.6911 H         1 MOL         0.3913
@<TRIPOS>BOND
     1    1    2 ar
     2    1    3 ar
     3    2    4 ar
     4    3    5 ar
     5    4    6 ar
     6    5    6 ar
     7    5    8 1
     8    6    9 1
     9    7    9 1
    10    1   10 1
    11    2   11 1
    12    3   12 1
    13    4   13 1
    14    7   14 1
    15    7   15 1
    16    7   16 1
    17    8   17 1
    18    8   18 1
