@<TRIPOS>MOLECULE
pentan_2_ol
   18    17     0     0     0
SMALL
USER_CHARGES

@<TRIPOS>ATOM
      1 C1         -0.3634    0.7825   -0.7780 C.3       1 MOL        -0.0904
      2 C2         -0.7529   -2.7862   -4.3246 C.3       1 MOL        -0.1245
      3 C3          0.1199    0.3162   -2.1425 C.3       1 MOL        -0.0745
      4 C4         -0.5207   -1.0174   -2.5371 C.3       1 MOL        -0.0769
      5 C5         -0.0767   -1.4806   -3.9284 C.3       1 MOL         0.1433
      6 O1         -0.3950   -0.4880   -4.9002 O.3       1 MOL        -0.6034
      7 H1          0.1064    1.7354   -0.5151 H         1 MOL         0.0325
      8 H2         -0.1101    0.0534   -0.0018 H         1 MOL         0.0325
      9 H3         -1.4485    0.9261   -0.7744 H         1 MOL         0.0325
     10 H4         -1.8421   -2.6714   -4.3576 H         1 MOL         0.0419
     11 H5         -0.4382   -3.0887   -5.3292 H         1 MOL         0.0419
     12 H6         -0.5063   -3.5902   -3.6245 H         1 MOL         0.0419
     13 H7         -0.1180    1.0853   -2.8860 H         1 MOL         0.0408
     14 H8          1.2109    0.2118   -2.1203 H         1 MOL         0.0408
     15 H9         -0.2591   -1.7818   -1.7954 H         1 MOL         0.0480
     16 H10        -1.6117   -0.9003   -2.5183 H         1 MOL         0.0480
     17 H11         1.0097   -1.6199   -3.9459 H         1 MOL         0.0277
     18 H12         0.1416   -0.6860   -5.6834 H         1 MOL         0.3980
@<TRIPOS>BOND
     1    1    3 1
     2    2    5 1
     3    3    4 1
     4    4    5 1
     5    5    6 1
     6    1    7 1
     7    1    8 1
     8    1    9 1
     9    2   10 1
    10    2   11 1
    11    2   12 1
    12    3   13 1
    13    3   14 1
    14    4   15 1
    15    4   16 1
    16    5   17 1
    17    6   18 1
