@<TRIPOS>MOLECULE
4_methyl_1h_imidazole
   12    12     0     0     0
SMALL
USER_CHARGES

@<TRIPOS>ATOM
      1 C1          0.7824   -0.2148    0.7134 C.2       1 MOL        -0.2619
      2 C2          1.7162   -0.6694    2.6570 C.2       1 MOL         0.3859
      3 C3          2.1466   -0.3434    0.5981 C.2       1 MOL         0.3046
      4 C4          2.9746   -0.2154   -0.6112 C.3       1 MOL        -0.1097
      5 N1          2.7219   -0.6265    1.8116 N.2       1 MOL        -0.6648
      6 N2          0.5218   -0.4262    2.0379 N.pl3     1 MOL        -0.3211
      7 H1         -0.0021   -0.0007    0.0015 H         1 MOL         0.1756
      8 H2          1.7833   -0.8693    3.7169 H         1 MOL         0.0590
      9 H3          3.8854   -0.8295   -0.5336 H         1 MOL         0.0447
     10 H4          2.4445   -0.5339   -1.5233 H         1 MOL         0.0447
     11 H5          3.2928    0.8253   -0.7840 H         1 MOL         0.0447
     12 H6         -0.3875   -0.4059    2.4801 H         1 MOL         0.2981
@<TRIPOS>BOND
     1    1    3 2
     2    1    6 1
     3    2    5 2
     4    2    6 1
     5    3    4 1
     6    3    5 1
     7    1    7 1
     8    2    8 1
     9    4    9 1
    10    4   10 1
    11    4   11 1
    12    6   12 1
