@<TRIPOS>MOLECULE
5-chlorouracil
   12    12     0     0     0
SMALL
USER_CHARGES

@<TRIPOS>ATOM
      1 C1         -1.2670    0.4240    1.5540 C.2       1 MOL         0.0512
      2 C2         -2.2300    0.0050    2.3790 C.2       1 MOL        -0.1791
      3 C3         -2.7450   -1.3830    2.2600 C.2       1 MOL         0.7231
      4 C4         -1.1330   -1.6990    0.3900 C.2       1 MOL         0.8034
      5 N1         -0.7300   -0.3870    0.5910 N.am      1 MOL        -0.4662
      6 N2         -2.1410   -2.1330    1.2560 N.am      1 MOL        -0.5835
      7 O1         -3.6280   -1.8180    2.9940 O.2       1 MOL        -0.5820
      8 O2         -0.6440   -2.4230   -0.4780 O.2       1 MOL        -0.6285
      9 Cl1        -2.9010    1.0230    3.5870 Cl        1 MOL        -0.0320
     10 H1         -0.8530    1.4240    1.5940 H         1 MOL         0.1753
     11 H2          0.0000   -0.0090   -0.0050 H         1 MOL         0.3595
     12 H3         -2.4640   -3.0890    1.1390 H         1 MOL         0.3588
@<TRIPOS>BOND
     1    1    2 2
     2    1    5 1
     3    2    3 1
     4    2    9 1
     5    3    6 am
     6    3    7 2
     7    4    5 am
     8    4    6 am
     9    4    8 2
    10    1   10 1
    11    5   11 1
    12    6   12 1
