@<TRIPOS>MOLECULE
ethyl_benzoate
   21    21     0     0     0
SMALL
USER_CHARGES

@<TRIPOS>ATOM
      1 C1          1.8846   -1.0376   -0.1090 C.ar      1 MOL        -0.0969
      2 C2          0.8176   -0.4410    0.5626 C.ar      1 MOL        -0.1480
      3 C3          2.9348   -1.6038    0.6137 C.ar      1 MOL        -0.1480
      4 C4          0.8008   -0.4105    1.9570 C.ar      1 MOL        -0.0715
      5 C5          2.9180   -1.5734    2.0082 C.ar      1 MOL        -0.0715
      6 C6          1.8509   -0.9767    2.6799 C.ar      1 MOL        -0.1350
      7 C7          1.8333   -0.9446    4.1336 C.2       1 MOL         0.6481
      8 C8          4.3227   -2.2817    6.4820 C.3       1 MOL        -0.1131
      9 C9          3.0391   -1.5804    6.0918 C.3       1 MOL         0.1423
     10 O1          0.9301   -0.4374    4.8121 O.2       1 MOL        -0.5464
     11 O2          2.9414   -1.5472    4.6639 O.3       1 MOL        -0.4436
     12 H1          1.8975   -1.0613   -1.1948 H         1 MOL         0.1357
     13 H2          0.0001    0.0000   -0.0000 H         1 MOL         0.1389
     14 H3          3.7651   -2.0690    0.0906 H         1 MOL         0.1389
     15 H4         -0.0358    0.0574    2.4697 H         1 MOL         0.1559
     16 H5          3.7417   -2.0179    2.5610 H         1 MOL         0.1559
     17 H6          4.4292   -2.3241    7.5695 H         1 MOL         0.0473
     18 H7          4.3412   -3.3020    6.0849 H         1 MOL         0.0473
     19 H8          5.1898   -1.7611    6.0621 H         1 MOL         0.0473
     20 H9          3.0327   -0.5536    6.4695 H         1 MOL         0.0583
     21 H10         2.1725   -2.1150    6.4921 H         1 MOL         0.0583
@<TRIPOS>BOND
     1    1    2 ar
     2    1    3 ar
     3    2    4 ar
     4    3    5 ar
     5    4    6 ar
     6    5    6 ar
     7    6    7 1
     8    7   10 2
     9    7   11 1
    10    8    9 1
    11    9   11 1
    12    1   12 1
    13    2   13 1
    14    3   14 1
    15    4   15 1
    16    5   16 1
    17    8   17 1
    18    8   18 1
    19    8   19 1
    20    9   20 1
    21    9   21 1
