@<TRIPOS>MOLECULE
1,2,3,4,7-pentachlorodibenzo-p-dioxin
   22    24     0     0     0
SMALL
USER_CHARGES

@<TRIPOS>ATOM
      1 C1         -3.1487    0.4152    1.2196 C.ar      1 MOL        -0.1036
      2 C2         -1.8584    0.7400    0.8000 C.ar      1 MOL        -0.1189
      3 C3         -1.4367   -1.5819    0.2693 C.ar      1 MOL        -0.1072
      4 C4         -3.5799   -0.9097    1.1626 C.ar      1 MOL         0.0580
      5 C5         -2.7266   -1.9051    0.6889 C.ar      1 MOL         0.0688
      6 C6         -5.2389   -2.4982    1.5123 C.ar      1 MOL         0.0839
      7 C7         -4.3856   -3.4936    1.0385 C.ar      1 MOL         0.0821
      8 C8         -1.0039   -0.2568    0.3257 C.ar      1 MOL         0.0212
      9 C9         -6.5287   -2.8214    1.9320 C.ar      1 MOL         0.0269
     10 C10        -4.8168   -4.8184    0.9815 C.ar      1 MOL         0.0285
     11 C11        -6.9616   -4.1465    1.8755 C.ar      1 MOL         0.0216
     12 C12        -6.1071   -5.1433    1.4010 C.ar      1 MOL         0.0203
     13 O1         -4.8561   -1.1828    1.5855 O.3       1 MOL        -0.2012
     14 O2         -3.1093   -3.2205    0.6157 O.3       1 MOL        -0.2026
     15 Cl1         0.5873    0.1498   -0.1892 Cl        1 MOL        -0.0743
     16 Cl2        -7.5646   -1.5539    2.5157 Cl        1 MOL        -0.0213
     17 Cl3        -3.7251   -6.0323    0.3860 Cl        1 MOL        -0.0207
     18 Cl4        -8.5730   -4.5509    2.4000 Cl        1 MOL        -0.0287
     19 Cl5        -6.6456   -6.7988    1.3317 Cl        1 MOL        -0.0298
     20 H1         -3.8085    1.1959    1.5876 H         1 MOL         0.1642
     21 H2         -1.5313    1.7756    0.8483 H         1 MOL         0.1587
     22 H3         -0.7767   -2.3637   -0.0989 H         1 MOL         0.1741
@<TRIPOS>BOND
     1    1    2 ar
     2    1    4 ar
     3    2    8 ar
     4    3    5 ar
     5    3    8 ar
     6    4    5 ar
     7    4   13 1
     8    5   14 1
     9    6    7 ar
    10    6    9 ar
    11    6   13 1
    12    7   10 ar
    13    7   14 1
    14    8   15 1
    15    9   11 ar
    16    9   16 1
    17   10   12 ar
    18   10   17 1
    19   11   12 ar
    20   11   18 1
    21   12   19 1
    22    1   20 1
    23    2   21 1
    24    3   22 1
