@<TRIPOS>MOLECULE
CUP08038_AM1BCC_v1_0
   26    26     0     0     0
SMALL
USER_CHARGES

@<TRIPOS>ATOM
      1 C1         -3.6224    0.6659   -5.9464 C.ar      1 MOL        -0.0547
      2 C2         -2.4977   -1.4160   -6.4993 C.ar      1 MOL        -0.0547
      3 C3         -2.7050    0.8862   -4.9125 C.ar      1 MOL        -0.1423
      4 C4         -1.5878   -1.1853   -5.4646 C.ar      1 MOL        -0.1423
      5 C5         -3.5151   -0.4850   -6.7378 C.ar      1 MOL        -0.1778
      6 C6         -1.6860   -0.0354   -4.6752 C.ar      1 MOL         0.1634
      7 C7          1.8141    0.3652   -2.0635 C.3       1 MOL         0.1298
      8 C8         -1.9104    2.3645   -0.8149 C.3       1 MOL         0.1298
      9 N1         -4.4781   -0.7183   -7.8213 N.pl3     1 MOL         0.3147
     10 O1         -5.3805    0.1160   -7.9802 O.3       1 MOL        -0.2025
     11 O2         -4.3326   -1.7372   -8.5117 O.2       1 MOL        -0.2025
     12 O3         -0.7450    0.0838   -3.6925 O.3       1 MOL        -0.4466
     13 O4          0.5244    0.7716   -1.6497 O.3       1 MOL        -0.5100
     14 O5         -1.8583    1.4703   -1.9090 O.3       1 MOL        -0.5100
     15 P1         -0.4845    1.3805   -2.7636 P.3       1 MOL         1.1644
     16 S1          0.1076    3.0070   -3.6418 S.2       1 MOL        -0.5640
     17 H1         -4.4099    1.3977   -6.1179 H         1 MOL         0.1797
     18 H2         -2.3999   -2.3168   -7.1016 H         1 MOL         0.1797
     19 H3         -2.8212    1.7832   -4.3114 H         1 MOL         0.1726
     20 H4         -0.7964   -1.9077   -5.2753 H         1 MOL         0.1726
     21 H5          2.2669   -0.2240   -1.2619 H         1 MOL         0.0667
     22 H6          2.4411    1.2405   -2.2502 H         1 MOL         0.0667
     23 H7          1.7587   -0.2530   -2.9635 H         1 MOL         0.0667
     24 H8         -2.8119    2.1514   -0.2348 H         1 MOL         0.0667
     25 H9         -1.9629    3.3950   -1.1748 H         1 MOL         0.0667
     26 H10        -1.0397    2.2397   -0.1660 H         1 MOL         0.0667
@<TRIPOS>BOND
     1    1    3 ar
     2    1    5 ar
     3    2    4 ar
     4    2    5 ar
     5    3    6 ar
     6    4    6 ar
     7    5    9 1
     8    6   12 1
     9    7   13 1
    10    8   14 1
    11    9   10 1
    12    9   11 2
    13   12   15 1
    14   13   15 1
    15   14   15 1
    16   15   16 2
    17    1   17 1
    18    2   18 1
    19    3   19 1
    20    4   20 1
    21    7   21 1
    22    7   22 1
    23    7   23 1
    24    8   24 1
    25    8   25 1
    26    8   26 1
