@<TRIPOS>MOLECULE
SAMPL4_019
   26    28     0     0     0
SMALL
USER_CHARGES

@<TRIPOS>ATOM
      1 C1          1.3820   -0.3500    0.2050 C.ar      1 MOL        -0.1300
      2 C2          1.7170   -1.5750   -0.3650 C.ar      1 MOL        -0.1300
      3 C3          7.8280   -0.2370    3.7420 C.ar      1 MOL        -0.1300
      4 C4          8.1630   -1.4610    3.1710 C.ar      1 MOL        -0.1300
      5 C5          2.1890    0.1970    1.2020 C.ar      1 MOL        -0.1270
      6 C6          2.8590   -2.2520    0.0600 C.ar      1 MOL        -0.1270
      7 C7          6.5400    0.2740    3.5890 C.ar      1 MOL        -0.1270
      8 C8          7.2090   -2.1750    2.4470 C.ar      1 MOL        -0.1270
      9 C9          3.3470   -0.4700    1.6290 C.ar      1 MOL        -0.0693
     10 C10         3.6850   -1.7050    1.0540 C.ar      1 MOL        -0.0693
     11 C11         5.5760   -0.4300    2.8520 C.ar      1 MOL        -0.0693
     12 C12         5.9130   -1.6660    2.2760 C.ar      1 MOL        -0.0693
     13 C13         4.1810    0.1310    2.7320 C.3       1 MOL         0.0082
     14 C14         4.8930   -2.4780    1.5180 C.3       1 MOL         0.0082
     15 H1          0.4890    0.1760   -0.1210 H         1 MOL         0.1310
     16 H2          1.0860   -2.0060   -1.1370 H         1 MOL         0.1310
     17 H3          8.5680    0.3180    4.3120 H         1 MOL         0.1310
     18 H4          9.1650   -1.8630    3.2940 H         1 MOL         0.1310
     19 H5          1.9100    1.1490    1.6460 H         1 MOL         0.1300
     20 H6          3.1020   -3.2130   -0.3870 H         1 MOL         0.1300
     21 H7          6.2890    1.2270    4.0490 H         1 MOL         0.1300
     22 H8          7.4810   -3.1360    2.0160 H         1 MOL         0.1300
     23 H9          4.2600    1.2110    2.5550 H         1 MOL         0.0607
     24 H10         3.6610   -0.0250    3.6860 H         1 MOL         0.0607
     25 H11         4.5550   -3.2980    2.1630 H         1 MOL         0.0607
     26 H12         5.3850   -2.9100    0.6370 H         1 MOL         0.0607
@<TRIPOS>BOND
     1    1    2 ar
     2    1    5 ar
     3    2    6 ar
     4    3    4 ar
     5    3    7 ar
     6    4    8 ar
     7    5    9 ar
     8    6   10 ar
     9    7   11 ar
    10    8   12 ar
    11    9   10 ar
    12    9   13 1
    13   10   14 1
    14   11   12 ar
    15   11   13 1
    16   12   14 1
    17    1   15 1
    18    2   16 1
    19    3   17 1
    20    4   18 1
    21    5   19 1
    22    6   20 1
    23    7   21 1
    24    8   22 1
    25   13   23 1
    26   13   24 1
    27   14   25 1
    28   14   26 1
