@<TRIPOS>MOLECULE
2_methoxy_111_trimethoxyethane
   24    23     0     0     0
SMALL
USER_CHARGES

@<TRIPOS>ATOM
      1 C1          0.2409    3.0416   -3.5108 C.3       1 MOL         0.1172
      2 C2         -2.4031   -0.4389   -0.8452 C.3       1 MOL         0.1342
      3 C3         -4.2230    2.3632   -0.4028 C.3       1 MOL         0.1342
      4 C4         -0.2423    2.7584    0.9068 C.3       1 MOL         0.1342
      5 C5         -0.8534    1.8227   -1.8257 C.3       1 MOL         0.1185
      6 C6         -1.8774    1.9217   -0.6768 C.3       1 MOL         0.5306
      7 O1         -0.7389    3.0802   -2.4833 O.3       1 MOL        -0.4036
      8 O2         -1.9815    0.6386   -0.0205 O.3       1 MOL        -0.4452
      9 O3         -3.1390    2.2306   -1.3138 O.3       1 MOL        -0.4452
     10 O4         -1.4992    2.9394    0.2703 O.3       1 MOL        -0.4452
     11 H1          0.9243    2.2077   -3.3324 H         1 MOL         0.0357
     12 H2          0.7944    3.9839   -3.5234 H         1 MOL         0.0357
     13 H3         -0.2580    2.9015   -4.4727 H         1 MOL         0.0357
     14 H4         -2.6417   -0.0632   -1.8432 H         1 MOL         0.0406
     15 H5         -3.2823   -0.9146   -0.4034 H         1 MOL         0.0406
     16 H6         -1.5937   -1.1693   -0.9172 H         1 MOL         0.0406
     17 H7         -3.8947    2.0776    0.5995 H         1 MOL         0.0406
     18 H8         -5.0496    1.7239   -0.7231 H         1 MOL         0.0406
     19 H9         -4.5533    3.4046   -0.3925 H         1 MOL         0.0406
     20 H10         0.5046    3.3965    0.4281 H         1 MOL         0.0406
     21 H11         0.0571    1.7100    0.8325 H         1 MOL         0.0406
     22 H12        -0.3339    3.0354    1.9597 H         1 MOL         0.0406
     23 H13        -1.1422    1.0656   -2.5613 H         1 MOL         0.0491
     24 H14         0.1410    1.5637   -1.4466 H         1 MOL         0.0491
@<TRIPOS>BOND
     1    1    7 1
     2    2    8 1
     3    3    9 1
     4    4   10 1
     5    5    6 1
     6    5    7 1
     7    6    8 1
     8    6    9 1
     9    6   10 1
    10    1   11 1
    11    1   12 1
    12    1   13 1
    13    2   14 1
    14    2   15 1
    15    2   16 1
    16    3   17 1
    17    3   18 1
    18    3   19 1
    19    4   20 1
    20    4   21 1
    21    4   22 1
    22    5   23 1
    23    5   24 1
