@<TRIPOS>MOLECULE
CUP08011_AM1BCC_v1_0
   39    39     0     0     0
SMALL
USER_CHARGES

@<TRIPOS>ATOM
      1 C1         -0.7974    7.5174    2.7792 C.ar      1 MOL         0.0077
      2 C2          1.2719    6.3402    2.4624 C.ar      1 MOL         0.0077
      3 C3          0.5664    7.5478    2.4601 C.ar      1 MOL        -0.1913
      4 C4         -1.4311    6.2966    3.1000 C.ar      1 MOL        -0.2112
      5 C5          0.6083    5.1403    2.7845 C.ar      1 MOL        -0.2112
      6 C6         -0.7638    5.0572    3.1022 C.ar      1 MOL         0.3151
      7 C7         -2.6258    2.5398   -1.3036 C.3       1 MOL        -0.0893
      8 C8         -1.1454    2.1323    5.1769 C.3       1 MOL        -0.1242
      9 C9         -3.0745    2.6518    0.1448 C.3       1 MOL        -0.0756
     10 C10        -1.9663    3.2210    1.0310 C.3       1 MOL        -0.1102
     11 C11        -1.5532    3.5549    4.8188 C.3       1 MOL         0.2240
     12 C12        -2.4245    3.3336    2.4880 C.3       1 MOL         0.2294
     13 C13         1.2475    8.8459    2.0916 C.3       1 MOL         0.7049
     14 N1         -1.3363    3.8037    3.3760 N.pl3     1 MOL        -0.7287
     15 N2         -2.8297    6.3969    3.4584 N.pl3     1 MOL         0.3172
     16 N3          1.4154    3.9369    2.7720 N.pl3     1 MOL         0.3172
     17 O1         -3.1154    6.2967    4.6581 O.3       1 MOL        -0.1845
     18 O2         -3.6249    6.6260    2.5376 O.2       1 MOL        -0.1845
     19 O3          1.6026    3.4002    1.6717 O.3       1 MOL        -0.1845
     20 O4          1.9230    3.5938    3.8484 O.2       1 MOL        -0.1845
     21 F1          0.7184    9.9180    2.7400 F         1 MOL        -0.2317
     22 F2          2.5759    8.8468    2.3821 F         1 MOL        -0.2317
     23 F3          1.1466    9.1157    0.7638 F         1 MOL        -0.2317
     24 H1         -1.3720    8.4458    2.7850 H         1 MOL         0.1869
     25 H2          2.3344    6.3255    2.2152 H         1 MOL         0.1869
     26 H3         -1.7591    1.8776   -1.3956 H         1 MOL         0.0355
     27 H4         -3.4325    2.1313   -1.9201 H         1 MOL         0.0355
     28 H5         -2.3537    3.5207   -1.7065 H         1 MOL         0.0355
     29 H6         -1.7572    1.3924    4.6519 H         1 MOL         0.0524
     30 H7         -0.0992    1.9438    4.9174 H         1 MOL         0.0524
     31 H8         -1.2655    1.9648    6.2519 H         1 MOL         0.0524
     32 H9         -3.9604    3.2952    0.1981 H         1 MOL         0.0392
     33 H10        -3.3703    1.6605    0.5072 H         1 MOL         0.0392
     34 H11        -1.0818    2.5749    0.9728 H         1 MOL         0.0569
     35 H12        -1.6699    4.2043    0.6472 H         1 MOL         0.0569
     36 H13        -0.9575    4.2420    5.4337 H         1 MOL         0.0543
     37 H14        -2.6062    3.7107    5.0806 H         1 MOL         0.0543
     38 H15        -2.7419    2.3372    2.8180 H         1 MOL         0.0568
     39 H16        -3.3098    3.9713    2.5679 H         1 MOL         0.0568
@<TRIPOS>BOND
     1    1    3 ar
     2    1    4 ar
     3    2    3 ar
     4    2    5 ar
     5    3   13 1
     6    4    6 ar
     7    4   15 1
     8    5    6 ar
     9    5   16 1
    10    6   14 1
    11    7    9 1
    12    8   11 1
    13    9   10 1
    14   10   12 1
    15   11   14 1
    16   12   14 1
    17   13   21 1
    18   13   22 1
    19   13   23 1
    20   15   17 1
    21   15   18 2
    22   16   19 1
    23   16   20 2
    24    1   24 1
    25    2   25 1
    26    7   26 1
    27    7   27 1
    28    7   28 1
    29    8   29 1
    30    8   30 1
    31    8   31 1
    32    9   32 1
    33    9   33 1
    34   10   34 1
    35   10   35 1
    36   11   36 1
    37   11   37 1
    38   12   38 1
    39   12   39 1
