@<TRIPOS>MOLECULE
2_methylbutane
   17    16     0     0     0
SMALL
USER_CHARGES

@<TRIPOS>ATOM
      1 C1          0.0257   -1.8271   -2.8721 C.3       1 MOL        -0.0892
      2 C2          2.6687   -1.6484   -1.3707 C.3       1 MOL        -0.0867
      3 C3          2.5201   -0.0904   -3.3235 C.3       1 MOL        -0.0867
      4 C4          0.4312   -0.6227   -2.0345 C.3       1 MOL        -0.0736
      5 C5          1.9539   -0.4226   -1.9410 C.3       1 MOL        -0.0667
      6 H1         -1.0572   -1.9776   -2.8122 H         1 MOL         0.0315
      7 H2          0.5144   -2.7386   -2.5135 H         1 MOL         0.0315
      8 H3          0.2808   -1.6878   -3.9265 H         1 MOL         0.0315
      9 H4          2.4496   -2.5454   -1.9595 H         1 MOL         0.0319
     10 H5          2.3697   -1.8382   -0.3354 H         1 MOL         0.0319
     11 H6          3.7541   -1.5003   -1.3723 H         1 MOL         0.0319
     12 H7          2.3516   -0.9105   -4.0298 H         1 MOL         0.0319
     13 H8          3.5983    0.0940   -3.2689 H         1 MOL         0.0319
     14 H9          2.0492    0.8105   -3.7311 H         1 MOL         0.0319
     15 H10        -0.0429    0.2763   -2.4470 H         1 MOL         0.0368
     16 H11         0.0248   -0.7578   -1.0244 H         1 MOL         0.0368
     17 H12         2.1567    0.4305   -1.2810 H         1 MOL         0.0430
@<TRIPOS>BOND
     1    1    4 1
     2    2    5 1
     3    3    5 1
     4    4    5 1
     5    1    6 1
     6    1    7 1
     7    1    8 1
     8    2    9 1
     9    2   10 1
    10    2   11 1
    11    3   12 1
    12    3   13 1
    13    3   14 1
    14    4   15 1
    15    4   16 1
    16    5   17 1
