@<TRIPOS>MOLECULE
n_pentyl_propanoate
   26    25     0     0     0
SMALL
USER_CHARGES

@<TRIPOS>ATOM
      1 C1          5.2415   -2.0415   -5.0274 C.2       1 MOL         0.6299
      2 C2          6.7592   -2.9230   -6.8261 C.3       1 MOL        -0.0895
      3 C3          0.8518   -0.3688    0.6905 C.3       1 MOL        -0.0898
      4 C4          5.9997   -3.2393   -5.5496 C.3       1 MOL        -0.1247
      5 C5          1.6513   -1.4310   -0.0471 C.3       1 MOL        -0.0779
      6 C6          2.2938   -0.8687   -1.3148 C.3       1 MOL        -0.0764
      7 C7          3.1237   -1.9294   -2.0346 C.3       1 MOL        -0.0879
      8 C8          3.8013   -1.3663   -3.2758 C.3       1 MOL         0.1401
      9 O1          5.2343   -0.9319   -5.5425 O.2       1 MOL        -0.5413
     10 O2          4.5660   -2.3952   -3.8884 O.3       1 MOL        -0.4458
     11 H1          7.4869   -2.1212   -6.6626 H         1 MOL         0.0464
     12 H2          7.2982   -3.8078   -7.1783 H         1 MOL         0.0464
     13 H3          6.0772   -2.5991   -7.6193 H         1 MOL         0.0464
     14 H4          1.4920    0.4677    0.9886 H         1 MOL         0.0323
     15 H5          0.0454    0.0222    0.0620 H         1 MOL         0.0323
     16 H6          0.4031   -0.7919    1.5947 H         1 MOL         0.0323
     17 H7          6.7063   -3.5653   -4.7789 H         1 MOL         0.0758
     18 H8          5.2839   -4.0449   -5.7443 H         1 MOL         0.0758
     19 H9          0.9892   -2.2661   -0.3036 H         1 MOL         0.0384
     20 H10         2.4270   -1.8247    0.6201 H         1 MOL         0.0384
     21 H11         1.5129   -0.4939   -1.9877 H         1 MOL         0.0432
     22 H12         2.9330   -0.0158   -1.0553 H         1 MOL         0.0432
     23 H13         2.4898   -2.7778   -2.3208 H         1 MOL         0.0520
     24 H14         3.8852   -2.3389   -1.3593 H         1 MOL         0.0520
     25 H15         4.4727   -0.5420   -3.0147 H         1 MOL         0.0542
     26 H16         3.0598   -1.0074   -3.9966 H         1 MOL         0.0542
@<TRIPOS>BOND
     1    1    4 1
     2    1    9 2
     3    1   10 1
     4    2    4 1
     5    3    5 1
     6    5    6 1
     7    6    7 1
     8    7    8 1
     9    8   10 1
    10    2   11 1
    11    2   12 1
    12    2   13 1
    13    3   14 1
    14    3   15 1
    15    3   16 1
    16    4   17 1
    17    4   18 1
    18    5   19 1
    19    5   20 1
    20    6   21 1
    21    6   22 1
    22    7   23 1
    23    7   24 1
    24    8   25 1
    25    8   26 1
