@<TRIPOS>MOLECULE
cycloheptanol
   22    22     0     0     0
SMALL
USER_CHARGES

@<TRIPOS>ATOM
      1 C1         -0.2291   -1.5570   -1.4436 C.3       1 MOL        -0.0732
      2 C2         -0.2458   -0.0787   -1.0669 C.3       1 MOL        -0.0732
      3 C3         -0.9658   -1.9058   -2.7326 C.3       1 MOL        -0.0689
      4 C4         -1.5322    0.6953   -1.3371 C.3       1 MOL        -0.0689
      5 C5         -2.4546   -2.1564   -2.5084 C.3       1 MOL        -0.0974
      6 C6         -2.8212   -0.0637   -1.0445 C.3       1 MOL        -0.0974
      7 C7         -3.2963   -0.9140   -2.2236 C.3       1 MOL         0.1469
      8 O1         -4.6304   -1.3402   -1.9321 O.3       1 MOL        -0.6060
      9 H1          0.8208   -1.8612   -1.5439 H         1 MOL         0.0372
     10 H2         -0.6303   -2.1507   -0.6127 H         1 MOL         0.0372
     11 H3         -0.0002   -0.0003    0.0002 H         1 MOL         0.0372
     12 H4          0.5706    0.4318   -1.5943 H         1 MOL         0.0372
     13 H5         -0.8053   -1.1433   -3.5034 H         1 MOL         0.0387
     14 H6         -0.5343   -2.8367   -3.1223 H         1 MOL         0.0387
     15 H7         -1.5088    1.6013   -0.7177 H         1 MOL         0.0387
     16 H8         -1.5362    1.0488   -2.3759 H         1 MOL         0.0387
     17 H9         -2.8657   -2.6438   -3.4028 H         1 MOL         0.0463
     18 H10        -2.5942   -2.8898   -1.7030 H         1 MOL         0.0463
     19 H11        -2.7309   -0.6704   -0.1351 H         1 MOL         0.0463
     20 H12        -3.6072    0.6711   -0.8230 H         1 MOL         0.0463
     21 H13        -3.3545   -0.2961   -3.1269 H         1 MOL         0.0524
     22 H14        -4.5994   -1.7457   -1.0533 H         1 MOL         0.3966
@<TRIPOS>BOND
     1    1    2 1
     2    1    3 1
     3    2    4 1
     4    3    5 1
     5    4    6 1
     6    5    7 1
     7    6    7 1
     8    7    8 1
     9    1    9 1
    10    1   10 1
    11    2   11 1
    12    2   12 1
    13    3   13 1
    14    3   14 1
    15    4   15 1
    16    4   16 1
    17    5   17 1
    18    5   18 1
    19    6   19 1
    20    6   20 1
    21    7   21 1
    22    8   22 1
