@<TRIPOS>MOLECULE
n_heptane
   23    22     0     0     0
SMALL
USER_CHARGES

@<TRIPOS>ATOM
      1 C1          1.3979    1.0564   -1.8399 C.3       1 MOL        -0.0896
      2 C2          5.1832   -4.2033    2.1255 C.3       1 MOL        -0.0896
      3 C3          1.4696   -0.4058   -1.4280 C.3       1 MOL        -0.0778
      4 C4          3.9722   -3.9278    1.2486 C.3       1 MOL        -0.0778
      5 C5          2.6412   -0.7215   -0.4958 C.3       1 MOL        -0.0767
      6 C6          3.8954   -2.4552    0.8462 C.3       1 MOL        -0.0767
      7 C7          2.6940   -2.1886   -0.0635 C.3       1 MOL        -0.0765
      8 H1          0.6032    1.1994   -2.5792 H         1 MOL         0.0313
      9 H2          2.3406    1.3853   -2.2883 H         1 MOL         0.0313
     10 H3          1.1754    1.7034   -0.9865 H         1 MOL         0.0313
     11 H4          6.1118   -3.9575    1.6006 H         1 MOL         0.0313
     12 H5          5.1426   -3.6137    3.0469 H         1 MOL         0.0313
     13 H6          5.2188   -5.2619    2.4010 H         1 MOL         0.0313
     14 H7          1.5717   -1.0173   -2.3325 H         1 MOL         0.0371
     15 H8          0.5257   -0.6979   -0.9535 H         1 MOL         0.0371
     16 H9          3.0633   -4.2137    1.7907 H         1 MOL         0.0371
     17 H10         4.0269   -4.5564    0.3522 H         1 MOL         0.0371
     18 H11         3.5720   -0.4682   -1.0184 H         1 MOL         0.0379
     19 H12         2.5908   -0.0762    0.3896 H         1 MOL         0.0379
     20 H13         3.8205   -1.8317    1.7455 H         1 MOL         0.0379
     21 H14         4.8192   -2.1675    0.3296 H         1 MOL         0.0379
     22 H15         1.7748   -2.4563    0.4695 H         1 MOL         0.0383
     23 H16         2.7555   -2.8311   -0.9502 H         1 MOL         0.0383
@<TRIPOS>BOND
     1    1    3 1
     2    2    4 1
     3    3    5 1
     4    4    6 1
     5    5    7 1
     6    6    7 1
     7    1    8 1
     8    1    9 1
     9    1   10 1
    10    2   11 1
    11    2   12 1
    12    2   13 1
    13    3   14 1
    14    3   15 1
    15    4   16 1
    16    4   17 1
    17    5   18 1
    18    5   19 1
    19    6   20 1
    20    6   21 1
    21    7   22 1
    22    7   23 1
