@<TRIPOS>MOLECULE
1,3,5-trichloro-2-phenyl-benzene
   22    23     0     0     0
SMALL
USER_CHARGES

@<TRIPOS>ATOM
      1 C1          1.8851   -1.0363   -0.1124 C.ar      1 MOL        -0.1195
      2 C2          0.8066   -0.4630    0.5610 C.ar      1 MOL        -0.1320
      3 C3          2.9210   -1.6309    0.6081 C.ar      1 MOL        -0.1316
      4 C4          0.7638   -0.4841    1.9551 C.ar      1 MOL        -0.0999
      5 C5          2.8783   -1.6520    2.0022 C.ar      1 MOL        -0.0996
      6 C6          1.1058   -2.1895    6.1783 C.ar      1 MOL        -0.1264
      7 C7          2.2711   -0.0744    6.2471 C.ar      1 MOL        -0.1264
      8 C8          1.7997   -1.0786    2.6757 C.ar      1 MOL        -0.0546
      9 C9          1.7549   -1.1005    4.1216 C.ar      1 MOL        -0.0252
     10 C10         1.6663   -1.1424    6.9097 C.ar      1 MOL         0.0313
     11 C11         1.1501   -2.1686    4.7842 C.ar      1 MOL         0.0417
     12 C12         2.3154   -0.0534    4.8530 C.ar      1 MOL         0.0410
     13 Cl1         1.6108   -1.1677    8.6297 Cl        1 MOL        -0.0754
     14 Cl2         0.4360   -3.4977    3.9357 Cl        1 MOL        -0.0666
     15 Cl3         3.0773    1.3017    4.0913 Cl        1 MOL        -0.0664
     16 H1          1.9174   -1.0212   -1.1979 H         1 MOL         0.1320
     17 H2         -0.0009   -0.0015    0.0001 H         1 MOL         0.1343
     18 H3          3.7605   -2.0787    0.0844 H         1 MOL         0.1349
     19 H4         -0.0840   -0.0332    2.4655 H         1 MOL         0.1390
     20 H5          3.6927   -2.1196    2.5504 H         1 MOL         0.1387
     21 H6          0.6351   -3.0214    6.6981 H         1 MOL         0.1653
     22 H7          2.7054    0.7420    6.8204 H         1 MOL         0.1654
@<TRIPOS>BOND
     1    1    2 ar
     2    1    3 ar
     3    2    4 ar
     4    3    5 ar
     5    4    8 ar
     6    5    8 ar
     7    6   10 ar
     8    6   11 ar
     9    7   10 ar
    10    7   12 ar
    11    8    9 1
    12    9   11 ar
    13    9   12 ar
    14   10   13 1
    15   11   14 1
    16   12   15 1
    17    1   16 1
    18    2   17 1
    19    3   18 1
    20    4   19 1
    21    5   20 1
    22    6   21 1
    23    7   22 1
