@<TRIPOS>MOLECULE
CUP08022_AM1BCC_v1_0
   29    29     0     0     0
SMALL
USER_CHARGES

@<TRIPOS>ATOM
      1 C1         -2.8488    3.0560   -3.2744 C.ar      1 MOL        -0.0544
      2 C2         -2.0943    2.0469   -3.8693 C.ar      1 MOL        -0.0924
      3 C3         -2.9739    3.0847   -1.8866 C.ar      1 MOL        -0.1184
      4 C4         -1.4909    1.0951   -3.0503 C.ar      1 MOL         0.6615
      5 C5         -2.3312    2.0912   -1.1538 C.ar      1 MOL         0.5564
      6 C6          2.8945   -0.3863   -0.4675 C.3       1 MOL        -0.1110
      7 C7          1.4111   -2.5714   -6.0690 C.3       1 MOL        -0.1110
      8 C8          1.7653   -1.2346   -1.0148 C.3       1 MOL         0.1685
      9 C9          0.3005   -2.3593   -5.0606 C.3       1 MOL         0.1685
     10 N1         -1.5930    1.0992   -1.7074 N.ar      1 MOL        -0.7549
     11 O1         -0.7445    0.1069   -3.6331 O.3       1 MOL        -0.5268
     12 O2          0.9369   -0.4159   -1.8211 O.3       1 MOL        -0.5336
     13 O3          0.8580   -1.7799   -3.8926 O.3       1 MOL        -0.5336
     14 P1         -0.1451   -1.1311   -2.7907 P.3       1 MOL         1.2053
     15 S1         -1.4000   -2.3886   -2.0019 S.2       1 MOL        -0.5229
     16 Cl1        -1.9404    2.0097   -5.5837 Cl        1 MOL        -0.0237
     17 Cl2        -3.9068    4.3399   -1.1664 Cl        1 MOL        -0.0321
     18 Cl3        -2.3863    2.0004    0.5623 Cl        1 MOL        -0.0820
     19 H1         -3.3336    3.8122   -3.8862 H         1 MOL         0.1769
     20 H2          3.4826    0.0452   -1.2841 H         1 MOL         0.0509
     21 H3          2.4994    0.4510    0.1171 H         1 MOL         0.0509
     22 H4          3.5565   -0.9804    0.1688 H         1 MOL         0.0509
     23 H5          1.8914   -1.6197   -6.3192 H         1 MOL         0.0509
     24 H6          2.1889   -3.2217   -5.6550 H         1 MOL         0.0509
     25 H7          1.0244   -3.0235   -6.9865 H         1 MOL         0.0509
     26 H8          1.1746   -1.6443   -0.1901 H         1 MOL         0.0637
     27 H9          2.1715   -2.0609   -1.6065 H         1 MOL         0.0637
     28 H10        -0.1578   -3.3192   -4.8050 H         1 MOL         0.0637
     29 H11        -0.4650   -1.7004   -5.4823 H         1 MOL         0.0637
@<TRIPOS>BOND
     1    1    2 ar
     2    1    3 ar
     3    2    4 ar
     4    2   16 1
     5    3    5 ar
     6    3   17 1
     7    4   10 ar
     8    4   11 1
     9    5   10 ar
    10    5   18 1
    11    6    8 1
    12    7    9 1
    13    8   12 1
    14    9   13 1
    15   11   14 1
    16   12   14 1
    17   13   14 1
    18   14   15 2
    19    1   19 1
    20    6   20 1
    21    6   21 1
    22    6   22 1
    23    7   23 1
    24    7   24 1
    25    7   25 1
    26    8   26 1
    27    8   27 1
    28    9   28 1
    29    9   29 1
