@<TRIPOS>MOLECULE
GLN
   12    11     0     0     0
SMALL
USER_CHARGES

@<TRIPOS>ATOM
      1 C1          0.6600    1.0100   -1.5600 C.3       1 MOL        -0.1005
      2 H1          1.2200    0.1700   -1.9800 H         1 MOL         0.0365
      3 H2         -0.3300    1.0100   -2.0300 H         1 MOL         0.0374
      4 H3          1.1300    1.9600   -1.8300 H         1 MOL         0.0464
      5 C2          0.5100    1.0500   -0.0400 C.3       1 MOL        -0.1534
      6 H4         -0.0500    1.9200    0.3200 H         1 MOL         0.0780
      7 H5          1.4800    1.1700    0.4400 H         1 MOL         0.0773
      8 C3         -0.0300   -0.2800    0.4700 C.2       1 MOL         0.6557
      9 O1         -0.2000   -0.4400    1.6700 O.2       1 MOL        -0.6230
     10 N1         -0.2400   -1.2300   -0.4400 N.am      1 MOL        -0.6765
     11 H6         -0.2300   -1.0600   -1.4300 H         1 MOL         0.3066
     12 H7         -0.7400   -2.0300   -0.0700 H         1 MOL         0.3154
@<TRIPOS>BOND
     1    1    2 1
     2    1    3 1
     3    1    4 1
     4    1    5 1
     5    5    6 1
     6    5    7 1
     7    5    8 1
     8    8    9 2
     9    8   10 am
    10   10   11 1
    11   10   12 1
