@<TRIPOS>MOLECULE
bromobenzene
   12    12     0     0     0
SMALL
USER_CHARGES

@<TRIPOS>ATOM
      1 C1          1.8846   -1.0376   -0.1090 C.ar      1 MOL        -0.1172
      2 C2          0.8176   -0.4410    0.5626 C.ar      1 MOL        -0.1302
      3 C3          2.9348   -1.6038    0.6137 C.ar      1 MOL        -0.1302
      4 C4          0.8008   -0.4105    1.9570 C.ar      1 MOL        -0.1035
      5 C5          2.9180   -1.5734    2.0082 C.ar      1 MOL        -0.1035
      6 C6          1.8509   -0.9767    2.6799 C.ar      1 MOL        -0.0264
      7 Br1         1.8282   -0.9349    4.5691 Br        1 MOL        -0.0911
      8 H1          1.8979   -1.0610   -1.1947 H         1 MOL         0.1356
      9 H2          0.0001    0.0000   -0.0001 H         1 MOL         0.1373
     10 H3          3.7658   -2.0678    0.0907 H         1 MOL         0.1373
     11 H4         -0.0377    0.0585    2.4652 H         1 MOL         0.1460
     12 H5          3.7441   -2.0185    2.5565 H         1 MOL         0.1460
@<TRIPOS>BOND
     1    1    2 ar
     2    1    3 ar
     3    2    4 ar
     4    3    5 ar
     5    4    6 ar
     6    5    6 ar
     7    6    7 1
     8    1    8 1
     9    2    9 1
    10    3   10 1
    11    4   11 1
    12    5   12 1
