@<TRIPOS>MOLECULE
SAMPL4_043
   16    16     0     0     0
SMALL
USER_CHARGES

@<TRIPOS>ATOM
      1 C1         -1.4070    0.0330   -0.0310 C.2       1 MOL        -0.1702
      2 C2         -0.7560   -0.0650   -1.1980 C.2       1 MOL        -0.1702
      3 C3         -0.7080    0.0930    1.2940 C.3       1 MOL        -0.0462
      4 C4          0.7390   -0.0900   -1.3030 C.3       1 MOL        -0.0462
      5 C5          0.7710   -0.2930    1.2120 C.3       1 MOL        -0.0754
      6 C6          1.4400    0.3310   -0.0090 C.3       1 MOL        -0.0754
      7 H1         -2.4930    0.0670   -0.0300 H         1 MOL         0.1190
      8 H2         -1.3270   -0.1260   -2.1210 H         1 MOL         0.1190
      9 H3         -0.8040    1.1120    1.6890 H         1 MOL         0.0467
     10 H4         -1.2120   -0.5750    2.0020 H         1 MOL         0.0467
     11 H5          1.0500   -1.1050   -1.5790 H         1 MOL         0.0467
     12 H6          1.0590    0.5750   -2.1140 H         1 MOL         0.0467
     13 H7          1.2860    0.0220    2.1270 H         1 MOL         0.0402
     14 H8          0.8630   -1.3850    1.1570 H         1 MOL         0.0402
     15 H9          2.4960    0.0410   -0.0500 H         1 MOL         0.0402
     16 H10         1.4140    1.4250    0.0830 H         1 MOL         0.0402
@<TRIPOS>BOND
     1    1    2 2
     2    1    3 1
     3    2    4 1
     4    3    5 1
     5    4    6 1
     6    5    6 1
     7    1    7 1
     8    2    8 1
     9    3    9 1
    10    3   10 1
    11    4   11 1
    12    4   12 1
    13    5   13 1
    14    5   14 1
    15    6   15 1
    16    6   16 1
