@<TRIPOS>MOLECULE
diethyl_succinate
   26    25     0     0     0
SMALL
USER_CHARGES

@<TRIPOS>ATOM
      1 C1         -1.9609   -0.7900    1.6264 C.2       1 MOL         0.6326
      2 C2         -4.2185   -0.8776    4.7842 C.2       1 MOL         0.6326
      3 C3         -1.1826    0.7928   -1.5834 C.3       1 MOL        -0.1119
      4 C4         -4.8806   -2.3184    8.0856 C.3       1 MOL        -0.1119
      5 C5         -3.1097   -0.4434    2.5493 C.3       1 MOL        -0.1253
      6 C6         -3.0932   -1.2532    3.8439 C.3       1 MOL        -0.1253
      7 C7         -0.9877   -0.1846   -0.4439 C.3       1 MOL         0.1410
      8 C8         -5.1280   -1.4045    6.9043 C.3       1 MOL         0.1410
      9 O1         -1.1304   -1.6651    1.8284 O.2       1 MOL        -0.5416
     10 O2         -5.0771   -0.0360    4.5591 O.2       1 MOL        -0.5416
     11 O3         -2.0119    0.0280    0.5329 O.3       1 MOL        -0.4439
     12 O4         -4.1204   -1.6384    5.9150 O.3       1 MOL        -0.4439
     13 H1         -0.4140    0.6574   -2.3494 H         1 MOL         0.0480
     14 H2         -2.1673    0.6585   -2.0430 H         1 MOL         0.0480
     15 H3         -1.1398    1.8244   -1.2184 H         1 MOL         0.0480
     16 H4         -5.6347   -2.1645    8.8625 H         1 MOL         0.0480
     17 H5         -4.9036   -3.3676    7.7734 H         1 MOL         0.0480
     18 H6         -3.8896   -2.1354    8.5140 H         1 MOL         0.0480
     19 H7         -4.0511   -0.5861    2.0076 H         1 MOL         0.0947
     20 H8         -3.0072    0.6177    2.8053 H         1 MOL         0.0947
     21 H9         -2.1529   -1.0455    4.3681 H         1 MOL         0.0947
     22 H10        -3.1519   -2.3273    3.6375 H         1 MOL         0.0947
     23 H11        -0.0128   -0.0332    0.0290 H         1 MOL         0.0579
     24 H12        -1.0543   -1.2148   -0.8060 H         1 MOL         0.0579
     25 H13        -5.0815   -0.3562    7.2138 H         1 MOL         0.0579
     26 H14        -6.1087   -1.6047    6.4627 H         1 MOL         0.0579
@<TRIPOS>BOND
     1    1    5 1
     2    1    9 2
     3    1   11 1
     4    2    6 1
     5    2   10 2
     6    2   12 1
     7    3    7 1
     8    4    8 1
     9    5    6 1
    10    7   11 1
    11    8   12 1
    12    3   13 1
    13    3   14 1
    14    3   15 1
    15    4   16 1
    16    4   17 1
    17    4   18 1
    18    5   19 1
    19    5   20 1
    20    6   21 1
    21    6   22 1
    22    7   23 1
    23    7   24 1
    24    8   25 1
    25    8   26 1
