@<TRIPOS>MOLECULE
res
   15    15     0     0     0
SMALL
USER_CHARGES

@<TRIPOS>ATOM
      1 H1          1.0000    1.8870    0.0360 H         1 MOL         0.0424
      2 C1         -0.0030    1.4930    0.0200 C.3       1 MOL        -0.0540
      3 H2         -0.5220    1.8810    0.9000 H         1 MOL         0.0428
      4 H3         -0.5240    1.8970   -0.8650 H         1 MOL         0.0463
      5 C2         -0.0510    0.0040    0.0060 C.ar      1 MOL        -0.0770
      6 C3         -1.1440   -0.6990    0.5480 C.ar      1 MOL        -0.1310
      7 H4         -1.9640   -0.1640    0.9880 H         1 MOL         0.1300
      8 C4         -1.1810   -2.0830    0.5070 C.ar      1 MOL        -0.1267
      9 H5         -2.0090   -2.6240    0.9080 H         1 MOL         0.1297
     10 C5         -0.1270   -2.8080   -0.0720 C.ar      1 MOL        -0.1348
     11 C6          0.9580   -2.1410   -0.6240 C.ar      1 MOL        -0.1268
     12 H6          1.7810   -2.6720   -1.0770 H         1 MOL         0.1297
     13 C7          1.0000   -0.7190   -0.5820 C.ar      1 MOL        -0.1307
     14 H7          1.8570   -0.2100   -1.0160 H         1 MOL         0.1300
     15 H8         -0.1520   -3.8930   -0.1210 H         1 MOL         0.1299
@<TRIPOS>BOND
     1    1    2 1
     2    2    3 1
     3    2    4 1
     4    2    5 1
     5    5    6 ar
     6    5   13 ar
     7    6    7 1
     8    6    8 ar
     9    8    9 1
    10    8   10 ar
    11   10   11 ar
    12   10   15 1
    13   11   12 1
    14   11   13 ar
    15   13   14 1
