@<TRIPOS>MOLECULE
3_methylhexane
   23    22     0     0     0
SMALL
USER_CHARGES

@<TRIPOS>ATOM
      1 C1          3.6307    1.4802   -5.5354 C.3       1 MOL        -0.0896
      2 C2          0.5121   -0.1930   -2.1290 C.3       1 MOL        -0.0893
      3 C3          1.8580   -2.6901   -3.2926 C.3       1 MOL        -0.0868
      4 C4          3.5065    0.7682   -4.1960 C.3       1 MOL        -0.0778
      5 C5          1.9462   -0.6264   -1.8616 C.3       1 MOL        -0.0747
      6 C6          2.7152   -0.5354   -4.3328 C.3       1 MOL        -0.0729
      7 C7          2.5977   -1.3718   -3.0415 C.3       1 MOL        -0.0634
      8 H1          2.6447    1.7331   -5.9383 H         1 MOL         0.0312
      9 H2          4.1512    0.8533   -6.2663 H         1 MOL         0.0312
     10 H3          4.1984    2.4089   -5.4194 H         1 MOL         0.0312
     11 H4          0.4619    0.5748   -2.9064 H         1 MOL         0.0315
     12 H5          0.0727    0.2296   -1.2196 H         1 MOL         0.0315
     13 H6         -0.1040   -1.0430   -2.4390 H         1 MOL         0.0315
     14 H7          1.7817   -3.2774   -2.3716 H         1 MOL         0.0322
     15 H8          0.8470   -2.5223   -3.6769 H         1 MOL         0.0322
     16 H9          2.3953   -3.2977   -4.0289 H         1 MOL         0.0322
     17 H10         4.5120    0.5664   -3.8123 H         1 MOL         0.0378
     18 H11         3.0143    1.4423   -3.4874 H         1 MOL         0.0378
     19 H12         2.5426    0.2495   -1.5813 H         1 MOL         0.0371
     20 H13         1.9429   -1.2875   -0.9855 H         1 MOL         0.0371
     21 H14         1.7093   -0.3075   -4.7061 H         1 MOL         0.0378
     22 H15         3.1847   -1.1556   -5.1079 H         1 MOL         0.0378
     23 H16         3.6214   -1.6353   -2.7416 H         1 MOL         0.0443
@<TRIPOS>BOND
     1    1    4 1
     2    2    5 1
     3    3    7 1
     4    4    6 1
     5    5    7 1
     6    6    7 1
     7    1    8 1
     8    1    9 1
     9    1   10 1
    10    2   11 1
    11    2   12 1
    12    2   13 1
    13    3   14 1
    14    3   15 1
    15    3   16 1
    16    4   17 1
    17    4   18 1
    18    5   19 1
    19    5   20 1
    20    6   21 1
    21    6   22 1
    22    7   23 1
