@<TRIPOS>MOLECULE
3_phenylpropanol
   22    22     0     0     0
SMALL
USER_CHARGES

@<TRIPOS>ATOM
      1 C1          1.8846   -1.0376   -0.1090 C.ar      1 MOL        -0.1314
      2 C2          0.8176   -0.4410    0.5626 C.ar      1 MOL        -0.1276
      3 C3          2.9348   -1.6038    0.6137 C.ar      1 MOL        -0.1276
      4 C4          0.8008   -0.4105    1.9570 C.ar      1 MOL        -0.1282
      5 C5          2.9180   -1.5734    2.0082 C.ar      1 MOL        -0.1282
      6 C6          1.8509   -0.9767    2.6799 C.ar      1 MOL        -0.0731
      7 C7          1.8328   -0.9437    4.1709 C.3       1 MOL        -0.0446
      8 C8          2.5091    0.3130    4.7323 C.3       1 MOL        -0.1057
      9 C9          2.5328    0.3200    6.2543 C.3       1 MOL         0.1313
     10 O1          3.1585    1.5158    6.6987 O.3       1 MOL        -0.6017
     11 H1          1.8979   -1.0612   -1.1948 H         1 MOL         0.1312
     12 H2          0.0002    0.0000   -0.0002 H         1 MOL         0.1313
     13 H3          3.7655   -2.0682    0.0906 H         1 MOL         0.1313
     14 H4         -0.0347    0.0567    2.4718 H         1 MOL         0.1321
     15 H5          3.7404   -2.0171    2.5631 H         1 MOL         0.1321
     16 H6          2.3300   -1.8406    4.5768 H         1 MOL         0.0503
     17 H7          0.7947   -0.9977    4.5393 H         1 MOL         0.0503
     18 H8          1.9947    1.2140    4.3733 H         1 MOL         0.0498
     19 H9          3.5363    0.3929    4.3535 H         1 MOL         0.0498
     20 H10         1.5168    0.2865    6.6610 H         1 MOL         0.0391
     21 H11         3.0994   -0.5336    6.6399 H         1 MOL         0.0391
     22 H12         3.0585    2.1666    5.9851 H         1 MOL         0.4001
@<TRIPOS>BOND
     1    1    2 ar
     2    1    3 ar
     3    2    4 ar
     4    3    5 ar
     5    4    6 ar
     6    5    6 ar
     7    6    7 1
     8    7    8 1
     9    8    9 1
    10    9   10 1
    11    1   11 1
    12    2   12 1
    13    3   13 1
    14    4   14 1
    15    5   15 1
    16    7   16 1
    17    7   17 1
    18    8   18 1
    19    8   19 1
    20    9   20 1
    21    9   21 1
    22   10   22 1
