@<TRIPOS>MOLECULE
2_methylpropan_2_ol
   15    14     0     0     0
SMALL
USER_CHARGES

@<TRIPOS>ATOM
      1 C1         -0.4645   -0.0646    0.9894 C.3       1 MOL        -0.1062
      2 C2          1.6273    0.6910    2.1567 C.3       1 MOL        -0.1062
      3 C3          1.2036   -1.7604    1.8118 C.3       1 MOL        -0.1062
      4 C4          0.5609   -0.3988    2.0719 C.3       1 MOL         0.1467
      5 O1         -0.1082   -0.4451    3.3327 O.3       1 MOL        -0.6011
      6 H1         -0.9608    0.8886    1.2038 H         1 MOL         0.0418
      7 H2          0.0000    0.0000    0.0000 H         1 MOL         0.0418
      8 H3         -1.2548   -0.8231    0.9519 H         1 MOL         0.0418
      9 H4          2.3378    0.4796    2.9640 H         1 MOL         0.0418
     10 H5          1.1755    1.6620    2.3896 H         1 MOL         0.0418
     11 H6          2.1853    0.7842    1.2194 H         1 MOL         0.0418
     12 H7          0.4460   -2.5520    1.7867 H         1 MOL         0.0418
     13 H8          1.7494   -1.7742    0.8629 H         1 MOL         0.0418
     14 H9          1.8988   -2.0233    2.6173 H         1 MOL         0.0418
     15 H10        -0.6576    0.3516    3.3800 H         1 MOL         0.3970
@<TRIPOS>BOND
     1    1    4 1
     2    2    4 1
     3    3    4 1
     4    4    5 1
     5    1    6 1
     6    1    7 1
     7    1    8 1
     8    2    9 1
     9    2   10 1
    10    2   11 1
    11    3   12 1
    12    3   13 1
    13    3   14 1
    14    5   15 1
