@<TRIPOS>MOLECULE
propan_2_ol
   12    11     0     0     0
SMALL
USER_CHARGES

@<TRIPOS>ATOM
      1 C1          1.0765    0.0499    0.1958 C.3       1 MOL        -0.1270
      2 C2          2.8427    1.0382    1.6976 C.3       1 MOL        -0.1270
      3 C3          1.3532    0.9191    1.4130 C.3       1 MOL         0.1380
      4 O1          0.8123    2.2184    1.1940 O.3       1 MOL        -0.6036
      5 H1          1.4532   -0.9673    0.3403 H         1 MOL         0.0411
      6 H2          0.0000    0.0000    0.0000 H         1 MOL         0.0411
      7 H3          1.5401    0.4709   -0.7032 H         1 MOL         0.0411
      8 H4          3.2882    0.0592    1.8989 H         1 MOL         0.0411
      9 H5          3.0145    1.6858    2.5641 H         1 MOL         0.0411
     10 H6          3.3699    1.4961    0.8534 H         1 MOL         0.0411
     11 H7          0.8468    0.4961    2.2868 H         1 MOL         0.0766
     12 H8          1.1338    2.5097    0.3264 H         1 MOL         0.3963
@<TRIPOS>BOND
     1    1    3 1
     2    2    3 1
     3    3    4 1
     4    1    5 1
     5    1    6 1
     6    1    7 1
     7    2    8 1
     8    2    9 1
     9    2   10 1
    10    3   11 1
    11    4   12 1
