@<TRIPOS>MOLECULE
E_oct_2_enal
   23    22     0     0     0
SMALL
USER_CHARGES

@<TRIPOS>ATOM
      1 C1          2.9377    3.1245   -0.6583 C.2       1 MOL        -0.2813
      2 C2          2.6298    1.8544   -0.9477 C.2       1 MOL        -0.0895
      3 C3          4.3455    3.4817   -0.4004 C.2       1 MOL         0.5600
      4 C4         -1.9731   -0.5819   -4.6370 C.3       1 MOL        -0.0902
      5 C5          1.2271    1.3871   -1.2154 C.3       1 MOL        -0.0603
      6 C6         -0.5463   -0.1468   -4.3424 C.3       1 MOL        -0.0777
      7 C7          1.0306    0.8330   -2.6303 C.3       1 MOL        -0.0730
      8 C8         -0.4151    0.4255   -2.9304 C.3       1 MOL        -0.0787
      9 O1          4.6842    4.6278   -0.1311 O.2       1 MOL        -0.5244
     10 H1          2.1927    3.9093   -0.6068 H         1 MOL         0.1493
     11 H2          3.4108    1.0988   -0.9796 H         1 MOL         0.1224
     12 H3          5.0782    2.6598   -0.4632 H         1 MOL        -0.0095
     13 H4         -2.2994   -1.3576   -3.9370 H         1 MOL         0.0327
     14 H5         -2.0435   -0.9877   -5.6510 H         1 MOL         0.0327
     15 H6         -2.6645    0.2633   -4.5606 H         1 MOL         0.0327
     16 H7          0.9645    0.6213   -0.4757 H         1 MOL         0.0544
     17 H8          0.5206    2.2134   -1.0673 H         1 MOL         0.0544
     18 H9         -0.2411    0.6051   -5.0793 H         1 MOL         0.0384
     19 H10         0.1235   -1.0066   -4.4592 H         1 MOL         0.0384
     20 H11         1.6964   -0.0245   -2.7889 H         1 MOL         0.0439
     21 H12         1.3372    1.6069   -3.3453 H         1 MOL         0.0439
     22 H13        -1.0719    1.2976   -2.8258 H         1 MOL         0.0408
     23 H14        -0.7535   -0.3246   -2.2066 H         1 MOL         0.0408
@<TRIPOS>BOND
     1    1    2 2
     2    1    3 1
     3    2    5 1
     4    3    9 2
     5    4    6 1
     6    5    7 1
     7    6    8 1
     8    7    8 1
     9    1   10 1
    10    2   11 1
    11    3   12 1
    12    4   13 1
    13    4   14 1
    14    4   15 1
    15    5   16 1
    16    5   17 1
    17    6   18 1
    18    6   19 1
    19    7   20 1
    20    7   21 1
    21    8   22 1
    22    8   23 1
