@<TRIPOS>MOLECULE
1,2,4,5-tetrachloro-3-(3,4-dichlorophenyl)benzene
   22    23     0     0     0
SMALL
USER_CHARGES

@<TRIPOS>ATOM
      1 C1          1.8851   -1.0363   -0.1124 C.ar      1 MOL        -0.0912
      2 C2          0.8066   -0.4630    0.5610 C.ar      1 MOL        -0.1204
      3 C3          2.8783   -1.6520    2.0022 C.ar      1 MOL        -0.0881
      4 C4          6.1971   -3.3703   -1.4388 C.ar      1 MOL        -0.1049
      5 C5          2.9210   -1.6309    0.6081 C.ar      1 MOL        -0.0461
      6 C6          4.0396   -2.2249   -0.0913 C.ar      1 MOL        -0.0200
      7 C7          0.7638   -0.4841    1.9551 C.ar      1 MOL         0.0269
      8 C8          1.7997   -1.0786    2.6757 C.ar      1 MOL         0.0154
      9 C9          6.2405   -2.0264   -1.0678 C.ar      1 MOL         0.0192
     10 C10         5.0749   -4.1415   -1.1361 C.ar      1 MOL         0.0189
     11 C11         5.1618   -1.4537   -0.3940 C.ar      1 MOL         0.0335
     12 C12         3.9962   -3.5688   -0.4623 C.ar      1 MOL         0.0333
     13 Cl1        -0.5975    0.2459    2.7310 Cl        1 MOL        -0.0645
     14 Cl2         1.8049   -1.1324    4.4038 Cl        1 MOL        -0.0632
     15 Cl3         7.6656   -1.1340   -1.4777 Cl        1 MOL        -0.0506
     16 Cl4         5.0937   -5.8004   -1.6292 Cl        1 MOL        -0.0499
     17 Cl5         5.2209    0.2243    0.0681 Cl        1 MOL        -0.0417
     18 Cl6         2.5970   -4.5351   -0.0871 Cl        1 MOL        -0.0416
     19 H1          1.9031   -1.0140   -1.1996 H         1 MOL         0.1506
     20 H2          0.0077   -0.0047   -0.0169 H         1 MOL         0.1545
     21 H3          3.6868   -2.1175    2.5628 H         1 MOL         0.1592
     22 H4          7.0387   -3.8171   -1.9651 H         1 MOL         0.1708
@<TRIPOS>BOND
     1    1    2 ar
     2    1    5 ar
     3    2    7 ar
     4    3    5 ar
     5    3    8 ar
     6    4    9 ar
     7    4   10 ar
     8    5    6 1
     9    6   11 ar
    10    6   12 ar
    11    7    8 ar
    12    7   13 1
    13    8   14 1
    14    9   11 ar
    15    9   15 1
    16   10   12 ar
    17   10   16 1
    18   11   17 1
    19   12   18 1
    20    1   19 1
    21    2   20 1
    22    3   21 1
    23    4   22 1
