@<TRIPOS>MOLECULE
35_dimethylphenol
   19    19     0     0     0
SMALL
USER_CHARGES

@<TRIPOS>ATOM
      1 C1          1.8994   -1.0130   -0.0784 C.ar      1 MOL        -0.1672
      2 C2          0.8129   -0.3274    1.9678 C.ar      1 MOL        -0.1912
      3 C3          2.9471   -1.4565    2.0530 C.ar      1 MOL        -0.1912
      4 C4          0.8258   -0.4081    0.5753 C.ar      1 MOL        -0.0281
      5 C5          2.9600   -1.5372    0.6605 C.ar      1 MOL        -0.0281
      6 C6          1.8736   -0.8516    2.7066 C.ar      1 MOL         0.1303
      7 C7         -0.3082    0.1510   -0.2152 C.3       1 MOL        -0.0628
      8 C8          4.1072   -2.1841   -0.0391 C.3       1 MOL        -0.0628
      9 O1          1.8608   -0.7727    4.0656 O.3       1 MOL        -0.5011
     10 H1          1.9100   -1.0757   -1.1641 H         1 MOL         0.1328
     11 H2         -0.0228    0.1428    2.4800 H         1 MOL         0.1408
     12 H3          3.7724   -1.8643    2.6316 H         1 MOL         0.1408
     13 H4         -1.1955   -0.4859   -0.1137 H         1 MOL         0.0449
     14 H5         -0.5669    1.1638    0.1202 H         1 MOL         0.0449
     15 H6         -0.0533    0.2250   -1.2806 H         1 MOL         0.0449
     16 H7          4.8775   -2.4801    0.6835 H         1 MOL         0.0449
     17 H8          3.7856   -3.0773   -0.5902 H         1 MOL         0.0449
     18 H9          4.5609   -1.5047   -0.7726 H         1 MOL         0.0449
     19 H10         1.1904   -0.1192    4.3364 H         1 MOL         0.4183
@<TRIPOS>BOND
     1    1    4 ar
     2    1    5 ar
     3    2    4 ar
     4    2    6 ar
     5    3    5 ar
     6    3    6 ar
     7    4    7 1
     8    5    8 1
     9    6    9 1
    10    1   10 1
    11    2   11 1
    12    3   12 1
    13    7   13 1
    14    7   14 1
    15    7   15 1
    16    8   16 1
    17    8   17 1
    18    8   18 1
    19    9   19 1
