@<TRIPOS>MOLECULE
trimethyl
   20    19     0     0     0
SMALL
USER_CHARGES

@<TRIPOS>ATOM
      1 C1         -0.0480   -0.9850   -0.3150 C.3       1 MOL         0.1253
      2 C2         -2.7160    0.3590    1.3310 C.3       1 MOL         0.1328
      3 C3         -2.5540   -3.7030    1.4930 C.3       1 MOL         0.1269
      4 C4         -1.3550   -1.5980    1.6330 C.3       1 MOL         0.5077
      5 C5         -0.1310   -2.0160    2.4570 C.3       1 MOL         0.6100
      6 O1         -1.1220   -1.7450    0.2210 O.3       1 MOL        -0.4513
      7 O2         -1.6020   -0.2210    1.9980 O.3       1 MOL        -0.4244
      8 O3         -2.4890   -2.3940    2.0420 O.3       1 MOL        -0.4154
      9 F1          0.9460   -1.2600    2.1410 F         1 MOL        -0.2235
     10 F2          0.2100   -3.3040    2.2280 F         1 MOL        -0.2360
     11 F3         -0.3480   -1.8860    3.7840 F         1 MOL        -0.2202
     12 H1          0.0340   -1.1750   -1.3870 H         1 MOL         0.0694
     13 H2          0.8820   -1.2630    0.1880 H         1 MOL         0.0412
     14 H3         -0.2460    0.0760   -0.1490 H         1 MOL         0.0443
     15 H4         -2.8390    1.3950    1.6570 H         1 MOL         0.0640
     16 H5         -3.6180   -0.2150    1.5580 H         1 MOL         0.0497
     17 H6         -2.5350    0.3380    0.2530 H         1 MOL         0.0393
     18 H7         -3.4460   -4.2120    1.8680 H         1 MOL         0.0688
     19 H8         -1.6580   -4.2620    1.7750 H         1 MOL         0.0408
     20 H9         -2.6090   -3.6300    0.4050 H         1 MOL         0.0506
@<TRIPOS>BOND
     1    1    6 1
     2    2    7 1
     3    3    8 1
     4    4    5 1
     5    4    6 1
     6    4    7 1
     7    4    8 1
     8    5    9 1
     9    5   10 1
    10    5   11 1
    11    1   12 1
    12    1   13 1
    13    1   14 1
    14    2   15 1
    15    2   16 1
    16    2   17 1
    17    3   18 1
    18    3   19 1
    19    3   20 1
