@<TRIPOS>MOLECULE
CUP08009_AM1BCC_v1_0
   32    32     0     0     0
SMALL
USER_CHARGES

@<TRIPOS>ATOM
      1 C1          0.8257   -2.1457   -1.9285 C.ar      1 MOL         0.9284
      2 C2          2.0363   -1.9204   -0.0448 C.ar      1 MOL         0.9274
      3 C3          2.6692   -3.3722   -1.6214 C.ar      1 MOL         0.7971
      4 C4         -1.3901   -1.2619   -4.7621 C.3       1 MOL        -0.1092
      5 C5          1.8383   -3.0794    2.8138 C.3       1 MOL        -0.1113
      6 C6          3.1863   -1.0397    3.3626 C.3       1 MOL        -0.1113
      7 C7          5.1081   -4.5077   -1.0158 C.3       1 MOL        -0.0642
      8 C8         -0.1287   -1.7915   -4.0982 C.3       1 MOL         0.2155
      9 C9          2.8029   -2.0298    2.2619 C.3       1 MOL         0.2133
     10 N1          0.9847   -1.5437   -0.7580 N.ar      1 MOL        -0.8461
     11 N2          1.6450   -3.0665   -2.4074 N.ar      1 MOL        -0.8046
     12 N3          2.9104   -2.8340   -0.4329 N.ar      1 MOL        -0.8360
     13 N4         -0.2911   -1.7496   -2.6558 N.pl3     1 MOL        -0.8455
     14 N5          2.1879   -1.2796    1.1746 N.pl3     1 MOL        -0.8257
     15 S1          3.7833   -4.6142   -2.2433 S.3       1 MOL        -0.1944
     16 H1         -2.2627   -1.8611   -4.4809 H         1 MOL         0.0442
     17 H2         -1.5856   -0.2259   -4.4652 H         1 MOL         0.0442
     18 H3         -1.2895   -1.2924   -5.8514 H         1 MOL         0.0442
     19 H4          0.9027   -2.6214    3.1542 H         1 MOL         0.0429
     20 H5          1.5828   -3.8246    2.0532 H         1 MOL         0.0429
     21 H6          2.2852   -3.6098    3.6613 H         1 MOL         0.0429
     22 H7          2.3079   -0.5105    3.7490 H         1 MOL         0.0429
     23 H8          3.8838   -0.2862    2.9803 H         1 MOL         0.0429
     24 H9          3.6699   -1.5541    4.1995 H         1 MOL         0.0429
     25 H10         5.9019   -5.2083   -1.2894 H         1 MOL         0.0740
     26 H11         4.7419   -4.7795   -0.0217 H         1 MOL         0.0740
     27 H12         5.5350   -3.5011   -0.9895 H         1 MOL         0.0740
     28 H13         0.7249   -1.1770   -4.4095 H         1 MOL         0.0518
     29 H14         0.0407   -2.8189   -4.4417 H         1 MOL         0.0518
     30 H15         3.7260   -2.5202    1.9284 H         1 MOL         0.0815
     31 H16        -0.5791   -0.8554   -2.2729 H         1 MOL         0.4423
     32 H17         1.3037   -0.8318    1.3914 H         1 MOL         0.4274
@<TRIPOS>BOND
     1    1   10 ar
     2    1   11 ar
     3    1   13 1
     4    2   10 ar
     5    2   12 ar
     6    2   14 1
     7    3   11 ar
     8    3   12 ar
     9    3   15 1
    10    4    8 1
    11    5    9 1
    12    6    9 1
    13    7   15 1
    14    8   13 1
    15    9   14 1
    16    4   16 1
    17    4   17 1
    18    4   18 1
    19    5   19 1
    20    5   20 1
    21    5   21 1
    22    6   22 1
    23    6   23 1
    24    6   24 1
    25    7   25 1
    26    7   26 1
    27    7   27 1
    28    8   28 1
    29    8   29 1
    30    9   30 1
    31   13   31 1
    32   14   32 1
