@<TRIPOS>MOLECULE
33_dimethylpentane
   23    22     0     0     0
SMALL
USER_CHARGES

@<TRIPOS>ATOM
      1 C1         -0.5076   -0.4808    0.8472 C.3       1 MOL        -0.0892
      2 C2         -2.4258   -3.7024    0.5509 C.3       1 MOL        -0.0892
      3 C3         -2.7382   -0.6454    2.9740 C.3       1 MOL        -0.0832
      4 C4         -4.3188   -1.3068    1.1665 C.3       1 MOL        -0.0832
      5 C5         -1.9974   -0.5983    0.5479 C.3       1 MOL        -0.0691
      6 C6         -2.3925   -2.8314    1.8011 C.3       1 MOL        -0.0691
      7 C7         -2.8406   -1.3572    1.6082 C.3       1 MOL        -0.0512
      8 H1         -0.3236    0.0576    1.7810 H         1 MOL         0.0318
      9 H2         -0.0126    0.0764    0.0446 H         1 MOL         0.0318
     10 H3         -0.0279   -1.4615    0.9087 H         1 MOL         0.0318
     11 H4         -2.0991   -4.7177    0.7996 H         1 MOL         0.0318
     12 H5         -3.4347   -3.7759    0.1357 H         1 MOL         0.0318
     13 H6         -1.7550   -3.3238   -0.2251 H         1 MOL         0.0318
     14 H7         -3.0044    0.4143    2.8901 H         1 MOL         0.0326
     15 H8         -1.7264   -0.7056    3.3883 H         1 MOL         0.0326
     16 H9         -3.4158   -1.0998    3.7063 H         1 MOL         0.0326
     17 H10        -4.4582   -1.7290    0.1660 H         1 MOL         0.0326
     18 H11        -4.9592   -1.8648    1.8589 H         1 MOL         0.0326
     19 H12        -4.6852   -0.2741    1.1363 H         1 MOL         0.0326
     20 H13        -2.3988    0.4171    0.4296 H         1 MOL         0.0369
     21 H14        -2.1138   -1.0780   -0.4319 H         1 MOL         0.0369
     22 H15        -1.3757   -2.8597    2.2122 H         1 MOL         0.0369
     23 H16        -3.0312   -3.3046    2.5589 H         1 MOL         0.0369
@<TRIPOS>BOND
     1    1    5 1
     2    2    6 1
     3    3    7 1
     4    4    7 1
     5    5    7 1
     6    6    7 1
     7    1    8 1
     8    1    9 1
     9    1   10 1
    10    2   11 1
    11    2   12 1
    12    2   13 1
    13    3   14 1
    14    3   15 1
    15    3   16 1
    16    4   17 1
    17    4   18 1
    18    4   19 1
    19    5   20 1
    20    5   21 1
    21    6   22 1
    22    6   23 1
