@<TRIPOS>MOLECULE
o_xylene
   18    18     0     0     0
SMALL
USER_CHARGES

@<TRIPOS>ATOM
      1 C1          1.8846   -1.0376   -0.1090 C.ar      1 MOL        -0.1316
      2 C2          0.8176   -0.4410    0.5626 C.ar      1 MOL        -0.1316
      3 C3          2.9348   -1.6038    0.6137 C.ar      1 MOL        -0.1268
      4 C4          0.8008   -0.4105    1.9570 C.ar      1 MOL        -0.1268
      5 C5          2.9180   -1.5734    2.0082 C.ar      1 MOL        -0.0686
      6 C6          1.8509   -0.9767    2.6799 C.ar      1 MOL        -0.0686
      7 C7          4.0541   -2.1853    2.7603 C.3       1 MOL        -0.0589
      8 C8          1.8108   -0.9320    4.1721 C.3       1 MOL        -0.0589
      9 H1          1.8974   -1.0617   -1.1945 H         1 MOL         0.1296
     10 H2         -0.0001   -0.0006   -0.0005 H         1 MOL         0.1296
     11 H3          3.7611   -2.0672    0.0812 H         1 MOL         0.1295
     12 H4         -0.0350    0.0566    2.4715 H         1 MOL         0.1295
     13 H5          4.5578   -1.4268    3.3706 H         1 MOL         0.0422
     14 H6          3.7054   -2.9896    3.4196 H         1 MOL         0.0422
     15 H7          4.7887   -2.6286    2.0767 H         1 MOL         0.0422
     16 H8          2.7162   -0.4528    4.5623 H         1 MOL         0.0422
     17 H9          0.9376   -0.3720    4.5287 H         1 MOL         0.0422
     18 H10         1.7383   -1.9409    4.5971 H         1 MOL         0.0422
@<TRIPOS>BOND
     1    1    2 ar
     2    1    3 ar
     3    2    4 ar
     4    3    5 ar
     5    4    6 ar
     6    5    6 ar
     7    5    7 1
     8    6    8 1
     9    1    9 1
    10    2   10 1
    11    3   11 1
    12    4   12 1
    13    7   13 1
    14    7   14 1
    15    7   15 1
    16    8   16 1
    17    8   17 1
    18    8   18 1
