@<TRIPOS>MOLECULE
diethyl_ether
   15    14     0     0     0
SMALL
USER_CHARGES

@<TRIPOS>ATOM
      1 C1          0.9167    1.4498    0.5861 C.3       1 MOL        -0.1109
      2 C2          1.9430    1.3174   -4.0752 C.3       1 MOL        -0.1109
      3 C3          1.9101    0.9126   -0.4220 C.3       1 MOL         0.1303
      4 C4          2.4157    0.8471   -2.7161 C.3       1 MOL         0.1303
      5 O1          1.5170    1.3236   -1.7228 O.3       1 MOL        -0.4258
      6 H1          1.1904    1.1501    1.6015 H         1 MOL         0.0417
      7 H2          0.8727    2.5429    0.5398 H         1 MOL         0.0417
      8 H3         -0.0913    1.0813    0.3686 H         1 MOL         0.0417
      9 H4          2.6144    0.9676   -4.8644 H         1 MOL         0.0417
     10 H5          0.9328    0.9489   -4.2814 H         1 MOL         0.0417
     11 H6          1.8962    2.4109   -4.1103 H         1 MOL         0.0417
     12 H7          1.9355   -0.1807   -0.3905 H         1 MOL         0.0342
     13 H8          2.9125    1.3005   -0.2176 H         1 MOL         0.0342
     14 H9          3.4159    1.2356   -2.5021 H         1 MOL         0.0342
     15 H10         2.4394   -0.2460   -2.6749 H         1 MOL         0.0342
@<TRIPOS>BOND
     1    1    3 1
     2    2    4 1
     3    3    5 1
     4    4    5 1
     5    1    6 1
     6    1    7 1
     7    1    8 1
     8    2    9 1
     9    2   10 1
    10    2   11 1
    11    3   12 1
    12    3   13 1
    13    4   14 1
    14    4   15 1
