@<TRIPOS>MOLECULE
imidazole
    9     9     0     0     0
SMALL
USER_CHARGES

@<TRIPOS>ATOM
      1 C1          2.0280   -0.7312   -0.6604 C.2       1 MOL         0.2912
      2 C2          0.6793   -0.7426   -0.3926 C.2       1 MOL        -0.2617
      3 C3          1.3580   -2.6792   -1.1960 C.2       1 MOL         0.3815
      4 N1          2.4441   -1.9395   -1.1608 N.2       1 MOL        -0.6672
      5 N2          0.2641   -1.9971   -0.7406 N.pl3     1 MOL        -0.3200
      6 H1          2.7205    0.0855   -0.5180 H         1 MOL         0.0422
      7 H2          0.0001   -0.0001    0.0003 H         1 MOL         0.1761
      8 H3          1.2957   -3.7032   -1.5359 H         1 MOL         0.0598
      9 H4         -0.6791   -2.3557   -0.6736 H         1 MOL         0.2982
@<TRIPOS>BOND
     1    1    2 2
     2    1    4 1
     3    2    5 1
     4    3    4 2
     5    3    5 1
     6    1    6 1
     7    2    7 1
     8    3    8 1
     9    5    9 1
