@<TRIPOS>MOLECULE
heptan_2_one
   22    21     0     0     0
SMALL
USER_CHARGES

@<TRIPOS>ATOM
      1 C1          1.0892    1.5725    1.4681 C.2       1 MOL         0.5591
      2 C2          2.4355    1.1399    0.9496 C.3       1 MOL        -0.1999
      3 C3         -3.2588    0.4562    5.9973 C.3       1 MOL        -0.0901
      4 C4          0.4906    0.7790    2.6121 C.3       1 MOL        -0.1791
      5 C5         -2.7150    1.1916    4.7828 C.3       1 MOL        -0.0762
      6 C6         -0.8378    1.3481    3.1007 C.3       1 MOL        -0.0704
      7 C7         -1.4004    0.5789    4.2991 C.3       1 MOL        -0.0789
      8 O1          0.5040    2.5449    0.9907 O.2       1 MOL        -0.5285
      9 H1          3.2134    1.4077    1.6678 H         1 MOL         0.0619
     10 H2          2.4361    0.0609    0.7763 H         1 MOL         0.0619
     11 H3          2.6395    1.6414   -0.0007 H         1 MOL         0.0619
     12 H4         -2.5510    0.4989    6.8313 H         1 MOL         0.0329
     13 H5         -4.1988    0.9105    6.3259 H         1 MOL         0.0329
     14 H6         -3.4531   -0.5957    5.7647 H         1 MOL         0.0329
     15 H7          0.3668   -0.2606    2.2878 H         1 MOL         0.0628
     16 H8          1.2204    0.7692    3.4297 H         1 MOL         0.0628
     17 H9         -2.5623    2.2462    5.0401 H         1 MOL         0.0372
     18 H10        -3.4596    1.1579    3.9790 H         1 MOL         0.0372
     19 H11        -1.5727    1.3503    2.2875 H         1 MOL         0.0482
     20 H12        -0.6808    2.3949    3.3884 H         1 MOL         0.0482
     21 H13        -1.5683   -0.4693    4.0256 H         1 MOL         0.0416
     22 H14        -0.6695    0.5869    5.1167 H         1 MOL         0.0416
@<TRIPOS>BOND
     1    1    2 1
     2    1    4 1
     3    1    8 2
     4    3    5 1
     5    4    6 1
     6    5    7 1
     7    6    7 1
     8    2    9 1
     9    2   10 1
    10    2   11 1
    11    3   12 1
    12    3   13 1
    13    3   14 1
    14    4   15 1
    15    4   16 1
    16    5   17 1
    17    5   18 1
    18    6   19 1
    19    6   20 1
    20    7   21 1
    21    7   22 1
