@<TRIPOS>MOLECULE
tetrahydrofuran
   13    13     0     0     0
SMALL
USER_CHARGES

@<TRIPOS>ATOM
      1 C1          0.9422   -0.5005   -0.2529 C.3       1 MOL        -0.1104
      2 C2          0.9472   -1.8955    0.3174 C.3       1 MOL        -0.1104
      3 C3          2.0874    0.1462    0.4957 C.3       1 MOL         0.1257
      4 C4          1.3000   -1.6384    1.7665 C.3       1 MOL         0.1257
      5 O1          2.1410   -0.4762    1.7872 O.3       1 MOL        -0.4341
      6 H1          1.0684   -0.4675   -1.3381 H         1 MOL         0.0544
      7 H2         -0.0000    0.0001   -0.0004 H         1 MOL         0.0544
      8 H3         -0.0010   -2.4253    0.1956 H         1 MOL         0.0544
      9 H4          1.7365   -2.4881   -0.1601 H         1 MOL         0.0544
     10 H5          3.0436   -0.0406   -0.0046 H         1 MOL         0.0465
     11 H6          1.9586    1.2260    0.6111 H         1 MOL         0.0465
     12 H7          0.4063   -1.4144    2.3585 H         1 MOL         0.0465
     13 H8          1.8229   -2.4807    2.2281 H         1 MOL         0.0465
@<TRIPOS>BOND
     1    1    2 1
     2    1    3 1
     3    2    4 1
     4    3    5 1
     5    4    5 1
     6    1    6 1
     7    1    7 1
     8    2    8 1
     9    2    9 1
    10    3   10 1
    11    3   11 1
    12    4   12 1
    13    4   13 1
