@<TRIPOS>MOLECULE
CUP08034_AM1BCC_v1_0
   24    24     0     0     0
SMALL
USER_CHARGES

@<TRIPOS>ATOM
      1 C1          1.8913   -1.3159    2.1959 C.2       1 MOL        -0.2646
      2 C2          1.0490   -1.5222    1.1707 C.2       1 MOL        -0.0423
      3 C3          2.6867   -0.0684    2.2939 C.2       1 MOL         0.5684
      4 C4          0.8862   -0.5351    0.0400 C.3       1 MOL        -0.0516
      5 C5          2.4728    1.0101    1.2538 C.3       1 MOL        -0.1715
      6 C6          2.0778    0.4378   -0.1191 C.3       1 MOL        -0.0444
      7 C7          0.1976   -2.7568    1.0928 C.3       1 MOL        -0.0698
      8 C8          3.2817   -0.2833   -0.7624 C.3       1 MOL        -0.0873
      9 C9          1.6639    1.5931   -1.0485 C.3       1 MOL        -0.0873
     10 O1          3.4507    0.0837    3.2446 O.2       1 MOL        -0.5361
     11 H1          2.0190   -2.0215    3.0090 H         1 MOL         0.1488
     12 H2          0.7421   -1.0792   -0.9027 H         1 MOL         0.0575
     13 H3         -0.0400    0.0268    0.2207 H         1 MOL         0.0575
     14 H4          1.6918    1.6778    1.6381 H         1 MOL         0.0714
     15 H5          3.3983    1.5922    1.1681 H         1 MOL         0.0714
     16 H6         -0.8622   -2.4845    1.0597 H         1 MOL         0.0500
     17 H7          0.3464   -3.4150    1.9554 H         1 MOL         0.0500
     18 H8          0.4391   -3.3288    0.1911 H         1 MOL         0.0500
     19 H9          4.1267    0.4028   -0.8913 H         1 MOL         0.0383
     20 H10         3.6333   -1.1266   -0.1595 H         1 MOL         0.0383
     21 H11         3.0209   -0.6746   -1.7524 H         1 MOL         0.0383
     22 H12         2.4873    2.3025   -1.1887 H         1 MOL         0.0383
     23 H13         1.3708    1.2203   -2.0363 H         1 MOL         0.0383
     24 H14         0.8139    2.1490   -0.6371 H         1 MOL         0.0383
@<TRIPOS>BOND
     1    1    2 2
     2    1    3 1
     3    2    4 1
     4    2    7 1
     5    3    5 1
     6    3   10 2
     7    4    6 1
     8    5    6 1
     9    6    8 1
    10    6    9 1
    11    1   11 1
    12    4   12 1
    13    4   13 1
    14    5   14 1
    15    5   15 1
    16    7   16 1
    17    7   17 1
    18    7   18 1
    19    8   19 1
    20    8   20 1
    21    8   21 1
    22    9   22 1
    23    9   23 1
    24    9   24 1
