@<TRIPOS>MOLECULE
4_methylpyridine
   14    14     0     0     0
SMALL
USER_CHARGES

@<TRIPOS>ATOM
      1 C1          0.1834   -0.3460    1.0107 C.ar      1 MOL        -0.2492
      2 C2          1.5263   -0.4068    3.0052 C.ar      1 MOL        -0.2492
      3 C3         -0.7036   -1.1995    1.6468 C.ar      1 MOL         0.3959
      4 C4          0.5791   -1.2576    3.5520 C.ar      1 MOL         0.3959
      5 C5          1.3172    0.0532    1.7098 C.ar      1 MOL        -0.0289
      6 C6          2.3048    0.9706    1.0728 C.3       1 MOL        -0.0678
      7 N1         -0.5344   -1.6671    2.9040 N.ar      1 MOL        -0.6691
      8 H1         -0.0078   -0.0051   -0.0010 H         1 MOL         0.1421
      9 H2          2.4005   -0.1139    3.5765 H         1 MOL         0.1421
     10 H3         -1.6029   -1.5408    1.1447 H         1 MOL         0.0207
     11 H4          0.6956   -1.6444    4.5591 H         1 MOL         0.0207
     12 H5          3.3264    0.6049    1.2350 H         1 MOL         0.0489
     13 H6          2.1329    1.0534   -0.0084 H         1 MOL         0.0489
     14 H7          2.2296    1.9857    1.4845 H         1 MOL         0.0489
@<TRIPOS>BOND
     1    1    3 ar
     2    1    5 ar
     3    2    4 ar
     4    2    5 ar
     5    3    7 ar
     6    4    7 ar
     7    5    6 1
     8    1    8 1
     9    2    9 1
    10    3   10 1
    11    4   11 1
    12    6   12 1
    13    6   13 1
    14    6   14 1
