@<TRIPOS>MOLECULE
3_formylpyridine
   13    13     0     0     0
SMALL
USER_CHARGES

@<TRIPOS>ATOM
      1 C1          0.2061   -0.4420    0.9680 C.ar      1 MOL        -0.2609
      2 C2          1.3347   -0.0801    1.6952 C.ar      1 MOL        -0.0425
      3 C3         -0.6461   -1.3849    1.5199 C.ar      1 MOL         0.4237
      4 C4          0.6597   -1.5966    3.3985 C.ar      1 MOL         0.4454
      5 C5          1.5731   -0.6637    2.9345 C.ar      1 MOL        -0.3153
      6 C6          2.7429   -0.3065    3.7179 C.2       1 MOL         0.5776
      7 N1         -0.4477   -1.9735    2.7207 N.ar      1 MOL        -0.6726
      8 O1          2.9924   -0.7994    4.8226 O.2       1 MOL        -0.5204
      9 H1         -0.0001    0.0001    0.0000 H         1 MOL         0.1497
     10 H2          2.0212    0.6571    1.2875 H         1 MOL         0.1509
     11 H3         -1.5405   -1.7009    0.9932 H         1 MOL         0.0271
     12 H4          0.7917   -2.0862    4.3586 H         1 MOL         0.0353
     13 H5          3.4372    0.4494    3.2883 H         1 MOL         0.0020
@<TRIPOS>BOND
     1    1    2 ar
     2    1    3 ar
     3    2    5 ar
     4    3    7 ar
     5    4    5 ar
     6    4    7 ar
     7    5    6 1
     8    6    8 2
     9    1    9 1
    10    2   10 1
    11    3   11 1
    12    4   12 1
    13    6   13 1
