@<TRIPOS>MOLECULE
2_phenylethanol
   19    19     0     0     0
SMALL
USER_CHARGES

@<TRIPOS>ATOM
      1 C1          1.8846   -1.0376   -0.1090 C.ar      1 MOL        -0.1309
      2 C2          0.8176   -0.4410    0.5626 C.ar      1 MOL        -0.1296
      3 C3          2.9348   -1.6038    0.6137 C.ar      1 MOL        -0.1296
      4 C4          0.8008   -0.4105    1.9570 C.ar      1 MOL        -0.1236
      5 C5          2.9180   -1.5734    2.0082 C.ar      1 MOL        -0.1236
      6 C6          1.8509   -0.9767    2.6799 C.ar      1 MOL        -0.0693
      7 C7          1.8328   -0.9437    4.1709 C.3       1 MOL        -0.0565
      8 C8          2.5045    0.3053    4.7493 C.3       1 MOL         0.1367
      9 O1          2.4163    0.2794    6.1682 O.3       1 MOL        -0.6015
     10 H1          1.8979   -1.0612   -1.1948 H         1 MOL         0.1303
     11 H2          0.0002    0.0000   -0.0002 H         1 MOL         0.1304
     12 H3          3.7655   -2.0682    0.0906 H         1 MOL         0.1304
     13 H4         -0.0347    0.0567    2.4718 H         1 MOL         0.1322
     14 H5          3.7404   -2.0171    2.5631 H         1 MOL         0.1322
     15 H6          2.3258   -1.8430    4.5774 H         1 MOL         0.0571
     16 H7          0.7906   -0.9853    4.5291 H         1 MOL         0.0571
     17 H8          1.9944    1.2083    4.3989 H         1 MOL         0.0293
     18 H9          3.5592    0.3642    4.4618 H         1 MOL         0.0293
     19 H10         2.4675   -0.6527    6.4345 H         1 MOL         0.3995
@<TRIPOS>BOND
     1    1    2 ar
     2    1    3 ar
     3    2    4 ar
     4    3    5 ar
     5    4    6 ar
     6    5    6 ar
     7    6    7 1
     8    7    8 1
     9    8    9 1
    10    1   10 1
    11    2   11 1
    12    3   12 1
    13    4   13 1
    14    5   14 1
    15    7   15 1
    16    7   16 1
    17    8   17 1
    18    8   18 1
    19    9   19 1
