@<TRIPOS>MOLECULE
CUP08030_AM1BCC_v1_0
   27    31     0     0     0
SMALL
USER_CHARGES

@<TRIPOS>ATOM
      1 C1          1.0558   -4.7098    2.9604 C.2       1 MOL        -0.0451
      2 C2          0.2609   -4.1209    3.8702 C.2       1 MOL        -0.0451
      3 C3          0.2088   -0.7958    0.6896 C.3       1 MOL        -0.1122
      4 C4          0.3476   -2.1773    0.0399 C.3       1 MOL        -0.0478
      5 C5         -0.9864   -1.1997    1.5598 C.3       1 MOL        -0.0478
      6 C6          0.3951   -3.1868    1.2238 C.3       1 MOL        -0.0706
      7 C7         -0.5405   -2.4974    2.2934 C.3       1 MOL        -0.0706
      8 C8         -1.0701   -2.3482   -0.5492 C.3       1 MOL         0.0452
      9 C9         -1.9655   -1.6942    0.4720 C.3       1 MOL         0.0452
     10 C10         1.6400   -3.5950    2.0853 C.3       1 MOL         0.0953
     11 C11         0.3130   -2.6123    3.6033 C.3       1 MOL         0.0953
     12 C12         1.8258   -2.5495    3.2275 C.3       1 MOL         0.1454
     13 O1         -1.8272   -1.1735   -0.8523 O.3       1 MOL        -0.3788
     14 Cl1         1.3097   -6.3634    2.7065 Cl        1 MOL        -0.0031
     15 Cl2        -0.7257   -4.8572    5.0312 Cl        1 MOL        -0.0031
     16 Cl3         3.0612   -3.9963    1.1521 Cl        1 MOL        -0.0746
     17 Cl4        -0.2152   -1.5692    4.9012 Cl        1 MOL        -0.0746
     18 Cl5         2.5469   -0.9792    2.8379 Cl        1 MOL        -0.0938
     19 Cl6         2.9530   -3.1177    4.5809 Cl        1 MOL        -0.0938
     20 H1          1.0669   -0.4238    1.2059 H         1 MOL         0.0812
     21 H2         -0.0381   -0.0083   -0.0338 H         1 MOL         0.0812
     22 H3          1.1390   -2.2804   -0.7035 H         1 MOL         0.0962
     23 H4         -1.4041   -0.4161    2.1929 H         1 MOL         0.0962
     24 H5         -0.0772   -4.1146    0.8616 H         1 MOL         0.0769
     25 H6         -1.4504   -3.1029    2.4355 H         1 MOL         0.0769
     26 H7         -1.3255   -3.2939   -0.9987 H         1 MOL         0.1131
     27 H8         -2.8888   -2.1533    0.7858 H         1 MOL         0.1131
@<TRIPOS>BOND
     1    1    2 2
     2    1   10 1
     3    1   14 1
     4    2   11 1
     5    2   15 1
     6    3    4 1
     7    3    5 1
     8    4    6 1
     9    4    8 1
    10    5    7 1
    11    5    9 1
    12    6    7 1
    13    6   10 1
    14    7   11 1
    15    8    9 1
    16    8   13 1
    17    9   13 1
    18   10   12 1
    19   10   16 1
    20   11   12 1
    21   11   17 1
    22   12   18 1
    23   12   19 1
    24    3   20 1
    25    3   21 1
    26    4   22 1
    27    5   23 1
    28    6   24 1
    29    7   25 1
    30    8   26 1
    31    9   27 1
