@<TRIPOS>MOLECULE
1,2,3,4,6,7,8,9-octachlorodibenzo-p-dioxin
   22    24     0     0     0
SMALL
USER_CHARGES

@<TRIPOS>ATOM
      1 C1         -3.5799   -0.9097    1.1626 C.ar      1 MOL         0.0785
      2 C2         -2.7266   -1.9051    0.6889 C.ar      1 MOL         0.0790
      3 C3         -5.2389   -2.4982    1.5123 C.ar      1 MOL         0.0793
      4 C4         -4.3856   -3.4936    1.0385 C.ar      1 MOL         0.0791
      5 C5         -3.1487    0.4152    1.2196 C.ar      1 MOL         0.0319
      6 C6         -1.4367   -1.5819    0.2693 C.ar      1 MOL         0.0321
      7 C7         -6.5287   -2.8214    1.9320 C.ar      1 MOL         0.0324
      8 C8         -4.8168   -4.8184    0.9815 C.ar      1 MOL         0.0324
      9 C9         -1.8584    0.7400    0.8000 C.ar      1 MOL         0.0229
     10 C10        -1.0039   -0.2568    0.3257 C.ar      1 MOL         0.0228
     11 C11        -6.9616   -4.1465    1.8755 C.ar      1 MOL         0.0225
     12 C12        -6.1071   -5.1433    1.4010 C.ar      1 MOL         0.0224
     13 O1         -4.8561   -1.1828    1.5855 O.3       1 MOL        -0.1874
     14 O2         -3.1093   -3.2205    0.6157 O.3       1 MOL        -0.1873
     15 Cl1        -4.2410    1.6281    1.8158 Cl        1 MOL        -0.0155
     16 Cl2        -0.4028   -2.8502   -0.3162 Cl        1 MOL        -0.0159
     17 Cl3        -7.5636   -1.5529    2.5161 Cl        1 MOL        -0.0140
     18 Cl4        -3.7244   -6.0317    0.3851 Cl        1 MOL        -0.0140
     19 Cl5        -1.3195    2.3954    0.8706 Cl        1 MOL        -0.0250
     20 Cl6         0.6077    0.1472   -0.1988 Cl        1 MOL        -0.0253
     21 Cl7        -8.5732   -4.5507    2.3999 Cl        1 MOL        -0.0255
     22 Cl8        -6.6460   -6.7986    1.3301 Cl        1 MOL        -0.0254
@<TRIPOS>BOND
     1    1    2 ar
     2    1    5 ar
     3    1   13 1
     4    2    6 ar
     5    2   14 1
     6    3    4 ar
     7    3    7 ar
     8    3   13 1
     9    4    8 ar
    10    4   14 1
    11    5    9 ar
    12    5   15 1
    13    6   10 ar
    14    6   16 1
    15    7   11 ar
    16    7   17 1
    17    8   12 ar
    18    8   18 1
    19    9   10 ar
    20    9   19 1
    21   10   20 1
    22   11   12 ar
    23   11   21 1
    24   12   22 1
