@<TRIPOS>MOLECULE
2_iodopropane
   11    10     0     0     0
SMALL
USER_CHARGES

@<TRIPOS>ATOM
      1 C1          0.7305   -0.7059    0.4096 C.3       1 MOL        -0.0909
      2 C2          1.2424    0.8463    2.3236 C.3       1 MOL        -0.0909
      3 C3          0.8189   -0.5646    1.9263 C.3       1 MOL         0.1027
      4 I1          2.2327   -1.9953    2.7088 I         1 MOL        -0.2679
      5 H1          0.4129   -1.7145    0.1231 H         1 MOL         0.0453
      6 H2          0.0000    0.0000    0.0000 H         1 MOL         0.0453
      7 H3          1.6939   -0.5080   -0.0737 H         1 MOL         0.0453
      8 H4          1.2906    0.9537    3.4128 H         1 MOL         0.0453
      9 H5          0.5233    1.5831    1.9498 H         1 MOL         0.0453
     10 H6          2.2269    1.1042    1.9176 H         1 MOL         0.0453
     11 H7         -0.1648   -0.7765    2.3611 H         1 MOL         0.0754
@<TRIPOS>BOND
     1    1    3 1
     2    2    3 1
     3    3    4 1
     4    1    5 1
     5    1    6 1
     6    1    7 1
     7    2    8 1
     8    2    9 1
     9    2   10 1
    10    3   11 1
