@<TRIPOS>MOLECULE
2_iodophenol
   13    13     0     0     0
SMALL
USER_CHARGES

@<TRIPOS>ATOM
      1 C1          1.8846   -1.0376   -0.1090 C.ar      1 MOL        -0.0789
      2 C2          0.8176   -0.4410    0.5626 C.ar      1 MOL        -0.1699
      3 C3          2.9348   -1.6038    0.6137 C.ar      1 MOL        -0.1614
      4 C4          0.8008   -0.4105    1.9570 C.ar      1 MOL        -0.0626
      5 C5          2.9180   -1.5734    2.0082 C.ar      1 MOL         0.1644
      6 C6          1.8509   -0.9767    2.6799 C.ar      1 MOL        -0.0646
      7 O1          3.9637   -2.1380    2.6766 O.3       1 MOL        -0.4921
      8 I1          1.7764   -0.9042    4.7672 I         1 MOL        -0.1432
      9 H1          1.8977   -1.0611   -1.1946 H         1 MOL         0.1385
     10 H2          0.0002   -0.0005   -0.0003 H         1 MOL         0.1395
     11 H3          3.7625   -2.0664    0.0835 H         1 MOL         0.1553
     12 H4         -0.0416    0.0603    2.4580 H         1 MOL         0.1444
     13 H5          3.8881   -1.9140    3.6214 H         1 MOL         0.4303
@<TRIPOS>BOND
     1    1    2 ar
     2    1    3 ar
     3    2    4 ar
     4    3    5 ar
     5    4    6 ar
     6    5    6 ar
     7    5    7 1
     8    6    8 1
     9    1    9 1
    10    2   10 1
    11    3   11 1
    12    4   12 1
    13    7   13 1
