@<TRIPOS>MOLECULE
methanesulfonyl_chloride
    8     7     0     0     0
SMALL
USER_CHARGES

@<TRIPOS>ATOM
      1 C1          0.7074   -0.5796    0.5951 C.3       1 MOL        -0.3811
      2 O1          3.0013    0.3940    1.4088 O.2       1 MOL        -0.5803
      3 O2          2.2829    0.7935   -0.9873 O.2       1 MOL        -0.5803
      4 S1          2.3350   -0.0475    0.1959 S.o2      1 MOL         1.3455
      5 Cl1         3.3748   -1.7137   -0.3936 Cl        1 MOL        -0.2194
      6 H1          0.5409   -0.4094    1.6599 H         1 MOL         0.1386
      7 H2          0.0000   -0.0000    0.0000 H         1 MOL         0.1386
      8 H3          0.6250   -1.6418    0.3600 H         1 MOL         0.1386
@<TRIPOS>BOND
     1    1    4 1
     2    2    4 2
     3    3    4 2
     4    4    5 1
     5    1    6 1
     6    1    7 1
     7    1    8 1
