@<TRIPOS>MOLECULE
2_methyltetrahydrofuran
   16    16     0     0     0
SMALL
USER_CHARGES

@<TRIPOS>ATOM
      1 C1          0.9183   -0.3716    0.4620 C.3       1 MOL        -0.1098
      2 C2          0.6782   -1.2623    1.6553 C.3       1 MOL        -0.1071
      3 C3          1.7110   -1.2801   -0.4497 C.3       1 MOL         0.1264
      4 C4          1.9621   -2.0748    1.7321 C.3       1 MOL         0.1356
      5 C5          3.0085   -1.4464    2.6423 C.3       1 MOL        -0.0990
      6 O1          2.4969   -2.1287    0.3977 O.3       1 MOL        -0.4315
      7 H1          0.0010    0.0026    0.0003 H         1 MOL         0.0539
      8 H2          1.5300    0.4884    0.7590 H         1 MOL         0.0539
      9 H3          0.4482   -0.7129    2.5726 H         1 MOL         0.0544
     10 H4         -0.1655   -1.9305    1.4427 H         1 MOL         0.0544
     11 H5          1.0497   -1.9202   -1.0437 H         1 MOL         0.0454
     12 H6          2.3660   -0.7282   -1.1294 H         1 MOL         0.0454
     13 H7          1.7638   -3.0962    2.0719 H         1 MOL         0.0512
     14 H8          2.8409   -0.3691    2.7342 H         1 MOL         0.0422
     15 H9          2.9638   -1.8886    3.6421 H         1 MOL         0.0422
     16 H10         4.0133   -1.6055    2.2398 H         1 MOL         0.0422
@<TRIPOS>BOND
     1    1    2 1
     2    1    3 1
     3    2    4 1
     4    3    6 1
     5    4    5 1
     6    4    6 1
     7    1    7 1
     8    1    8 1
     9    2    9 1
    10    2   10 1
    11    3   11 1
    12    3   12 1
    13    4   13 1
    14    5   14 1
    15    5   15 1
    16    5   16 1
