@<TRIPOS>MOLECULE
3_nitroaniline
   16    16     0     0     0
SMALL
USER_CHARGES

@<TRIPOS>ATOM
      1 C1          0.8324   -0.3948    0.5751 C.ar      1 MOL        -0.0950
      2 C2          1.8991   -1.0135   -0.0768 C.ar      1 MOL        -0.1641
      3 C3          0.8349   -0.2829    1.9655 C.ar      1 MOL        -0.1217
      4 C4          2.9708   -1.4085    2.0522 C.ar      1 MOL        -0.1497
      5 C5          2.9683   -1.5204    0.6618 C.ar      1 MOL         0.1546
      6 C6          1.9042   -0.7896    2.7040 C.ar      1 MOL        -0.1226
      7 N1          4.0465   -2.1460    0.0026 N.pl3     1 MOL        -0.8311
      8 N2          1.9059   -0.6762    4.1196 N.pl3     1 MOL         0.3078
      9 O1          0.9360   -0.1166    4.6858 O.3       1 MOL        -0.2054
     10 O2          2.8770   -1.1389    4.7654 O.2       1 MOL        -0.2054
     11 H1          0.0001    0.0004   -0.0000 H         1 MOL         0.1463
     12 H2          1.8870   -1.0950   -1.1606 H         1 MOL         0.1428
     13 H3         -0.0029    0.2019    2.4608 H         1 MOL         0.1666
     14 H4          3.8062   -1.8050    2.6260 H         1 MOL         0.1661
     15 H5          3.8594   -2.7648   -0.7604 H         1 MOL         0.4054
     16 H6          4.9713   -2.0356    0.3669 H         1 MOL         0.4054
@<TRIPOS>BOND
     1    1    2 ar
     2    1    3 ar
     3    2    5 ar
     4    3    6 ar
     5    4    5 ar
     6    4    6 ar
     7    5    7 1
     8    6    8 1
     9    8    9 1
    10    8   10 2
    11    1   11 1
    12    2   12 1
    13    3   13 1
    14    4   14 1
    15    7   15 1
    16    7   16 1
