@<TRIPOS>MOLECULE
3_methylbutanoic_acid
   17    16     0     0     0
SMALL
USER_CHARGES

@<TRIPOS>ATOM
      1 C1         -2.8819   -1.5796   -0.6666 C.2       1 MOL         0.6369
      2 C2          0.0229   -1.0823   -0.1670 C.3       1 MOL        -0.0935
      3 C3          0.3915   -0.8159   -2.6287 C.3       1 MOL        -0.0935
      4 C4         -1.9626   -0.9779   -1.7031 C.3       1 MOL        -0.1229
      5 C5         -0.5051   -1.4418   -1.5572 C.3       1 MOL        -0.0593
      6 O1         -3.5152   -0.9656    0.1789 O.2       1 MOL        -0.5499
      7 O2         -2.9440   -2.9270   -0.8226 O.3       1 MOL        -0.6115
      8 H1         -0.5799   -1.5590    0.6132 H         1 MOL         0.0397
      9 H2          0.0000    0.0000   -0.0000 H         1 MOL         0.0397
     10 H3          1.0564   -1.4227   -0.0432 H         1 MOL         0.0397
     11 H4          0.3866    0.2775   -2.5619 H         1 MOL         0.0397
     12 H5          1.4264   -1.1553   -2.5132 H         1 MOL         0.0397
     13 H6          0.0639   -1.0943   -3.6351 H         1 MOL         0.0397
     14 H7         -2.3356   -1.2381   -2.7009 H         1 MOL         0.0779
     15 H8         -2.0239    0.1105   -1.5855 H         1 MOL         0.0779
     16 H9         -0.4566   -2.5328   -1.6645 H         1 MOL         0.0573
     17 H10        -3.5555   -3.3418   -0.1775 H         1 MOL         0.4425
@<TRIPOS>BOND
     1    1    4 1
     2    1    6 2
     3    1    7 1
     4    2    5 1
     5    3    5 1
     6    4    5 1
     7    2    8 1
     8    2    9 1
     9    2   10 1
    10    3   11 1
    11    3   12 1
    12    3   13 1
    13    4   14 1
    14    4   15 1
    15    5   16 1
    16    7   17 1
