@<TRIPOS>MOLECULE
1,2,3,4-tetrachloro-5-(2,3,4,6-tetrachlorophenyl)benzene
   22    23     0     0     0
SMALL
USER_CHARGES

@<TRIPOS>ATOM
      1 C1          1.8851   -1.0363   -0.1124 C.ar      1 MOL        -0.0846
      2 C2         -2.3430   -0.0635   -1.4174 C.ar      1 MOL        -0.1189
      3 C3          0.8066   -0.4630    0.5610 C.ar      1 MOL        -0.0291
      4 C4         -0.2446    0.1415   -0.2379 C.ar      1 MOL        -0.0340
      5 C5          2.9210   -1.6309    0.6081 C.ar      1 MOL         0.0187
      6 C6         -1.3280   -0.6345   -0.6498 C.ar      1 MOL         0.0485
      7 C7         -2.2746    1.2835   -1.7734 C.ar      1 MOL         0.0373
      8 C8          0.7638   -0.4841    1.9551 C.ar      1 MOL         0.0476
      9 C9         -0.1761    1.4886   -0.5938 C.ar      1 MOL         0.0492
     10 C10         2.8783   -1.6520    2.0022 C.ar      1 MOL         0.0312
     11 C11        -1.1912    2.0595   -1.3615 C.ar      1 MOL         0.0099
     12 C12         1.7997   -1.0786    2.6757 C.ar      1 MOL         0.0190
     13 Cl1         4.2236   -2.3214   -0.2987 Cl        1 MOL        -0.0516
     14 Cl2        -1.4742   -2.3110   -0.2426 Cl        1 MOL        -0.0557
     15 Cl3        -3.5718    1.9192   -2.7268 Cl        1 MOL        -0.0473
     16 Cl4        -0.5922    0.2387    2.7755 Cl        1 MOL        -0.0399
     17 Cl5         1.1822    2.4492   -0.0741 Cl        1 MOL        -0.0378
     18 Cl6         4.1775   -2.3993    2.8877 Cl        1 MOL        -0.0339
     19 Cl7        -1.1179    3.7389   -1.8122 Cl        1 MOL        -0.0335
     20 Cl8         1.7450   -1.1031    4.4172 Cl        1 MOL        -0.0345
     21 H1          1.9184   -1.0196   -1.2006 H         1 MOL         0.1670
     22 H2         -3.1880   -0.6696   -1.7383 H         1 MOL         0.1724
@<TRIPOS>BOND
     1    1    3 ar
     2    1    5 ar
     3    2    6 ar
     4    2    7 ar
     5    3    4 1
     6    3    8 ar
     7    4    6 ar
     8    4    9 ar
     9    5   10 ar
    10    5   13 1
    11    6   14 1
    12    7   11 ar
    13    7   15 1
    14    8   12 ar
    15    8   16 1
    16    9   11 ar
    17    9   17 1
    18   10   12 ar
    19   10   18 1
    20   11   19 1
    21   12   20 1
    22    1   21 1
    23    2   22 1
