@<TRIPOS>MOLECULE
4_ethylpyridine
   17    17     0     0     0
SMALL
USER_CHARGES

@<TRIPOS>ATOM
      1 C1          0.1834   -0.3460    1.0107 C.ar      1 MOL        -0.2461
      2 C2          1.5263   -0.4068    3.0052 C.ar      1 MOL        -0.2461
      3 C3         -0.7036   -1.1995    1.6468 C.ar      1 MOL         0.3944
      4 C4          0.5791   -1.2576    3.5520 C.ar      1 MOL         0.3944
      5 C5          1.3172    0.0532    1.7098 C.ar      1 MOL        -0.0292
      6 C6          3.3948    0.2159    0.3157 C.3       1 MOL        -0.0868
      7 C7          2.3048    0.9706    1.0728 C.3       1 MOL        -0.0519
      8 N1         -0.5344   -1.6671    2.9040 N.ar      1 MOL        -0.6682
      9 H1         -0.0078   -0.0051   -0.0010 H         1 MOL         0.1423
     10 H2          2.4005   -0.1139    3.5765 H         1 MOL         0.1423
     11 H3         -1.6029   -1.5408    1.1447 H         1 MOL         0.0207
     12 H4          0.6956   -1.6444    4.5591 H         1 MOL         0.0207
     13 H5          3.9540   -0.4445    0.9872 H         1 MOL         0.0378
     14 H6          4.1036    0.9136   -0.1413 H         1 MOL         0.0378
     15 H7          2.9646   -0.4009   -0.4806 H         1 MOL         0.0378
     16 H8          1.7973    1.6605    0.3793 H         1 MOL         0.0500
     17 H9          2.7756    1.6160    1.8321 H         1 MOL         0.0500
@<TRIPOS>BOND
     1    1    3 ar
     2    1    5 ar
     3    2    4 ar
     4    2    5 ar
     5    3    8 ar
     6    4    8 ar
     7    5    7 1
     8    6    7 1
     9    1    9 1
    10    2   10 1
    11    3   11 1
    12    4   12 1
    13    6   13 1
    14    6   14 1
    15    6   15 1
    16    7   16 1
    17    7   17 1
