@<TRIPOS>MOLECULE
ethyl_propanoate
   17    16     0     0     0
SMALL
USER_CHARGES

@<TRIPOS>ATOM
      1 C1         -2.0715    1.2977    2.4497 C.2       1 MOL         0.6306
      2 C2         -0.8816    0.5302    0.3734 C.3       1 MOL        -0.0892
      3 C3         -2.8772    1.8005    5.9866 C.3       1 MOL        -0.1132
      4 C4         -0.8823    0.5514    1.8920 C.3       1 MOL        -0.1251
      5 C5         -3.0831    1.9316    4.4926 C.3       1 MOL         0.1394
      6 O1         -2.9385    1.8436    1.7813 O.2       1 MOL        -0.5417
      7 O2         -2.0159    1.2612    3.8143 O.3       1 MOL        -0.4454
      8 H1         -0.8507    1.5461   -0.0343 H         1 MOL         0.0461
      9 H2         -0.0095   -0.0152    0.0001 H         1 MOL         0.0461
     10 H3         -1.7823    0.0419   -0.0133 H         1 MOL         0.0461
     11 H4         -3.6774    2.3038    6.5364 H         1 MOL         0.0470
     12 H5         -2.8539    0.7464    6.2821 H         1 MOL         0.0470
     13 H6         -1.9170    2.2355    6.2834 H         1 MOL         0.0470
     14 H7          0.0313    1.0393    2.2480 H         1 MOL         0.0753
     15 H8         -0.9104   -0.4767    2.2684 H         1 MOL         0.0753
     16 H9         -3.0827    2.9847    4.1961 H         1 MOL         0.0575
     17 H10        -4.0319    1.4756    4.1943 H         1 MOL         0.0575
@<TRIPOS>BOND
     1    1    4 1
     2    1    6 2
     3    1    7 1
     4    2    4 1
     5    3    5 1
     6    5    7 1
     7    2    8 1
     8    2    9 1
     9    2   10 1
    10    3   11 1
    11    3   12 1
    12    3   13 1
    13    4   14 1
    14    4   15 1
    15    5   16 1
    16    5   17 1
