@<TRIPOS>MOLECULE
undecan_2_one
   34    33     0     0     0
SMALL
USER_CHARGES

@<TRIPOS>ATOM
      1 C1          0.4677    3.5261    1.1488 C.2       1 MOL         0.5595
      2 C2          1.5437    2.5368    1.5146 C.3       1 MOL        -0.1997
      3 C3        -10.8312    5.5594    1.2341 C.3       1 MOL        -0.0897
      4 C4         -0.9644    3.0710    1.3766 C.3       1 MOL        -0.1797
      5 C5         -9.4161    6.0021    0.8976 C.3       1 MOL        -0.0780
      6 C6         -2.0123    4.1089    0.9777 C.3       1 MOL        -0.0701
      7 C7         -8.3970    4.9059    1.2117 C.3       1 MOL        -0.0768
      8 C8         -3.4437    3.6147    1.2133 C.3       1 MOL        -0.0796
      9 C9         -6.9800    5.3434    0.8361 C.3       1 MOL        -0.0761
     10 C10        -4.4668    4.6897    0.8397 C.3       1 MOL        -0.0764
     11 C11        -5.9140    4.2852    1.1373 C.3       1 MOL        -0.0764
     12 O1          0.7544    4.6418    0.7175 O.2       1 MOL        -0.5288
     13 H1          1.4621    2.2817    2.5741 H         1 MOL         0.0620
     14 H2          2.5280    2.9769    1.3315 H         1 MOL         0.0620
     15 H3          1.4391    1.6388    0.9006 H         1 MOL         0.0620
     16 H4        -11.1120    4.6722    0.6573 H         1 MOL         0.0315
     17 H5        -10.9249    5.3215    2.2985 H         1 MOL         0.0315
     18 H6        -11.5435    6.3567    1.0001 H         1 MOL         0.0315
     19 H7         -1.0633    2.8550    2.4466 H         1 MOL         0.0633
     20 H8         -1.1290    2.1395    0.8240 H         1 MOL         0.0633
     21 H9         -9.1771    6.9071    1.4684 H         1 MOL         0.0374
     22 H10        -9.3650    6.2654   -0.1653 H         1 MOL         0.0374
     23 H11        -1.8479    5.0141    1.5751 H         1 MOL         0.0476
     24 H12        -1.8844    4.3932   -0.0736 H         1 MOL         0.0476
     25 H13        -8.4463    4.6684    2.2803 H         1 MOL         0.0386
     26 H14        -8.6579    3.9932    0.6624 H         1 MOL         0.0386
     27 H15        -3.6217    2.7113    0.6212 H         1 MOL         0.0426
     28 H16        -3.5679    3.3413    2.2680 H         1 MOL         0.0426
     29 H17        -6.9453    5.5613   -0.2390 H         1 MOL         0.0381
     30 H18        -6.7325    6.2818    1.3455 H         1 MOL         0.0381
     31 H19        -4.3605    4.9523   -0.2190 H         1 MOL         0.0393
     32 H20        -4.2485    5.6042    1.4055 H         1 MOL         0.0393
     33 H21        -6.1537    3.3808    0.5641 H         1 MOL         0.0388
     34 H22        -5.9831    4.0048    2.1959 H         1 MOL         0.0388
@<TRIPOS>BOND
     1    1    2 1
     2    1    4 1
     3    1   12 2
     4    3    5 1
     5    4    6 1
     6    5    7 1
     7    6    8 1
     8    7    9 1
     9    8   10 1
    10    9   11 1
    11   10   11 1
    12    2   13 1
    13    2   14 1
    14    2   15 1
    15    3   16 1
    16    3   17 1
    17    3   18 1
    18    4   19 1
    19    4   20 1
    20    5   21 1
    21    5   22 1
    22    6   23 1
    23    6   24 1
    24    7   25 1
    25    7   26 1
    26    8   27 1
    27    8   28 1
    28    9   29 1
    29    9   30 1
    30   10   31 1
    31   10   32 1
    32   11   33 1
    33   11   34 1
