@<TRIPOS>MOLECULE
isoflurane
   12    11     0     0     0
SMALL
USER_CHARGES

@<TRIPOS>ATOM
      1 C1         -0.0671   -1.4261    2.2066 C.3       1 MOL         0.2120
      2 C2         -2.0898   -0.9930    1.0491 C.3       1 MOL         0.6027
      3 C3          0.3612   -2.3453    3.3303 C.3       1 MOL         0.6334
      4 O1         -1.2351   -1.9787    1.6027 O.3       1 MOL        -0.4340
      5 F1         -2.4893   -0.1814    2.0592 F         1 MOL        -0.2236
      6 F2         -3.2016   -1.6005    0.5684 F         1 MOL        -0.2236
      7 F3         -0.5966   -2.4402    4.2787 F         1 MOL        -0.2247
      8 F4          1.4763   -1.8725    3.9319 F         1 MOL        -0.2247
      9 F5          0.6326   -3.5910    2.8863 F         1 MOL        -0.2247
     10 Cl1         1.2374   -1.3110    0.9970 Cl        1 MOL        -0.1144
     11 H1         -0.2622   -0.4235    2.6032 H         1 MOL         0.1179
     12 H2         -1.6121   -0.3928    0.2686 H         1 MOL         0.1036
@<TRIPOS>BOND
     1    1    3 1
     2    1    4 1
     3    1   10 1
     4    2    4 1
     5    2    5 1
     6    2    6 1
     7    3    7 1
     8    3    8 1
     9    3    9 1
    10    1   11 1
    11    2   12 1
