@<TRIPOS>MOLECULE
3_ethylpyridine
   17    17     0     0     0
SMALL
USER_CHARGES

@<TRIPOS>ATOM
      1 C1          0.2061   -0.4420    0.9680 C.ar      1 MOL        -0.2438
      2 C2          1.3347   -0.0801    1.6952 C.ar      1 MOL        -0.0931
      3 C3         -0.6461   -1.3849    1.5199 C.ar      1 MOL         0.3885
      4 C4          0.6597   -1.5966    3.3985 C.ar      1 MOL         0.3950
      5 C5          1.5731   -0.6637    2.9345 C.ar      1 MOL        -0.1820
      6 C6          3.9764   -1.1851    3.4231 C.3       1 MOL        -0.0877
      7 C7          2.7718   -0.2985    3.7358 C.3       1 MOL        -0.0417
      8 N1         -0.4477   -1.9735    2.7207 N.ar      1 MOL        -0.6635
      9 H1         -0.0001   -0.0001    0.0001 H         1 MOL         0.1421
     10 H2          2.0221    0.6563    1.2881 H         1 MOL         0.1374
     11 H3         -1.5396   -1.7024    0.9920 H         1 MOL         0.0211
     12 H4          0.7934   -2.0868    4.3580 H         1 MOL         0.0213
     13 H5          3.7544   -2.2365    3.6353 H         1 MOL         0.0368
     14 H6          4.8423   -0.8932    4.0256 H         1 MOL         0.0368
     15 H7          4.2562   -1.1073    2.3671 H         1 MOL         0.0368
     16 H8          3.0491    0.7550    3.5612 H         1 MOL         0.0481
     17 H9          2.5516   -0.3630    4.8150 H         1 MOL         0.0481
@<TRIPOS>BOND
     1    1    2 ar
     2    1    3 ar
     3    2    5 ar
     4    3    8 ar
     5    4    5 ar
     6    4    8 ar
     7    5    7 1
     8    6    7 1
     9    1    9 1
    10    2   10 1
    11    3   11 1
    12    4   12 1
    13    6   13 1
    14    6   14 1
    15    6   15 1
    16    7   16 1
    17    7   17 1
