@<TRIPOS>MOLECULE
2_nitrotoluene
   17    17     0     0     0
SMALL
USER_CHARGES

@<TRIPOS>ATOM
      1 C1          1.8846   -1.0376   -0.1090 C.ar      1 MOL        -0.0962
      2 C2          0.8176   -0.4410    0.5626 C.ar      1 MOL        -0.1336
      3 C3          2.9348   -1.6038    0.6137 C.ar      1 MOL        -0.1323
      4 C4          0.8008   -0.4105    1.9570 C.ar      1 MOL        -0.0797
      5 C5          2.9180   -1.5734    2.0082 C.ar      1 MOL        -0.0097
      6 C6          1.8509   -0.9767    2.6799 C.ar      1 MOL        -0.1556
      7 C7          4.0581   -2.1900    2.7528 C.3       1 MOL        -0.0843
      8 N1          1.8117   -0.9358    4.1010 N.pl3     1 MOL         0.3065
      9 O1          0.8331   -0.3912    4.6646 O.3       1 MOL        -0.1997
     10 O2          2.7566   -1.4459    4.7481 O.2       1 MOL        -0.1997
     11 H1          1.8987   -1.0607   -1.1948 H         1 MOL         0.1434
     12 H2          0.0006    0.0002   -0.0005 H         1 MOL         0.1473
     13 H3          3.7616   -2.0668    0.0810 H         1 MOL         0.1465
     14 H4         -0.0382    0.0577    2.4663 H         1 MOL         0.1580
     15 H5          4.5612   -1.4353    3.3674 H         1 MOL         0.0630
     16 H6          3.7116   -2.9999    3.4057 H         1 MOL         0.0630
     17 H7          4.7907   -2.6258    2.0629 H         1 MOL         0.0630
@<TRIPOS>BOND
     1    1    2 ar
     2    1    3 ar
     3    2    4 ar
     4    3    5 ar
     5    4    6 ar
     6    5    6 ar
     7    5    7 1
     8    6    8 1
     9    8    9 1
    10    8   10 2
    11    1   11 1
    12    2   12 1
    13    3   13 1
    14    4   14 1
    15    7   15 1
    16    7   16 1
    17    7   17 1
