@<TRIPOS>MOLECULE
CUP08063_AM1BCC_v1_0
   35    35     0     0     0
SMALL
USER_CHARGES

@<TRIPOS>ATOM
      1 C1          4.1056   -2.9695    1.6072 C.ar      1 MOL        -0.3513
      2 C2          4.7150   -4.2059    1.5174 C.ar      1 MOL         0.4904
      3 C3          3.0739   -2.9252    2.5245 C.ar      1 MOL         0.7046
      4 C4          3.3768   -5.0886    3.2045 C.ar      1 MOL         0.8971
      5 C5          1.3227   -1.5736    1.8727 C.2       1 MOL         0.7553
      6 C6          4.4715   -1.8090    0.7421 C.3       1 MOL        -0.0338
      7 C7          5.8218   -4.4778    0.5410 C.3       1 MOL        -0.1509
      8 C8          3.4612   -7.4583    3.5322 C.3       1 MOL         0.1963
      9 C9          1.7059   -6.0789    4.6018 C.3       1 MOL         0.1963
     10 C10        -0.6947   -0.2609    1.4553 C.3       1 MOL         0.0780
     11 C11         0.6983    0.2672    3.4292 C.3       1 MOL         0.0780
     12 N1          4.3652   -5.2466    2.3071 N.ar      1 MOL        -0.7581
     13 N2          2.7214   -3.9315    3.3435 N.ar      1 MOL        -0.7802
     14 N3          3.0439   -6.1606    4.0381 N.pl3     1 MOL        -0.7393
     15 N4          0.5468   -0.4564    2.1786 N.am      1 MOL        -0.4363
     16 O1          1.0893   -2.3068    0.9154 O.2       1 MOL        -0.5315
     17 O2          2.3859   -1.7295    2.7461 O.3       1 MOL        -0.4918
     18 H1          3.9653   -1.8862   -0.2251 H         1 MOL         0.0450
     19 H2          4.1955   -0.8557    1.2044 H         1 MOL         0.0450
     20 H3          5.5522   -1.7635    0.5739 H         1 MOL         0.0450
     21 H4          6.7057   -3.8838    0.7923 H         1 MOL         0.0580
     22 H5          6.1097   -5.5343    0.5639 H         1 MOL         0.0580
     23 H6          5.5010   -4.2428   -0.4786 H         1 MOL         0.0580
     24 H7          3.1889   -8.2475    4.2424 H         1 MOL         0.0457
     25 H8          4.5493   -7.5155    3.4125 H         1 MOL         0.0457
     26 H9          2.9790   -7.6913    2.5755 H         1 MOL         0.0457
     27 H10         1.5181   -6.9361    5.2584 H         1 MOL         0.0457
     28 H11         0.9386   -6.0853    3.8188 H         1 MOL         0.0457
     29 H12         1.5815   -5.1842    5.2227 H         1 MOL         0.0457
     30 H13        -1.5101   -0.7104    2.0300 H         1 MOL         0.0491
     31 H14        -0.6606   -0.7250    0.4660 H         1 MOL         0.0491
     32 H15        -0.8767    0.8108    1.3338 H         1 MOL         0.0491
     33 H16         0.4020    1.3098    3.2821 H         1 MOL         0.0491
     34 H17         1.7312    0.2486    3.7851 H         1 MOL         0.0491
     35 H18         0.0534   -0.1971    4.1811 H         1 MOL         0.0491
@<TRIPOS>BOND
     1    1    2 ar
     2    1    3 ar
     3    1    6 1
     4    2    7 1
     5    2   12 ar
     6    3   13 ar
     7    3   17 1
     8    4   12 ar
     9    4   13 ar
    10    4   14 1
    11    5   15 am
    12    5   16 2
    13    5   17 1
    14    8   14 1
    15    9   14 1
    16   10   15 1
    17   11   15 1
    18    6   18 1
    19    6   19 1
    20    6   20 1
    21    7   21 1
    22    7   22 1
    23    7   23 1
    24    8   24 1
    25    8   25 1
    26    8   26 1
    27    9   27 1
    28    9   28 1
    29    9   29 1
    30   10   30 1
    31   10   31 1
    32   10   32 1
    33   11   33 1
    34   11   34 1
    35   11   35 1
