@<TRIPOS>MOLECULE
2_chloropyridine
   11    11     0     0     0
SMALL
USER_CHARGES

@<TRIPOS>ATOM
      1 C1          1.2858   -0.0601    1.7333 C.ar      1 MOL        -0.0856
      2 C2          0.1842   -0.4388    0.9739 C.ar      1 MOL        -0.2475
      3 C3          1.4967   -0.6399    2.9793 C.ar      1 MOL        -0.2356
      4 C4         -0.6697   -1.3939    1.5014 C.ar      1 MOL         0.4075
      5 C5          0.5838   -1.5858    3.4172 C.ar      1 MOL         0.4887
      6 N1         -0.4976   -1.9792    2.7078 N.ar      1 MOL        -0.6544
      7 Cl1         0.7643   -2.3528    4.9411 Cl        1 MOL        -0.1514
      8 H1          1.9786    0.6854    1.3545 H         1 MOL         0.1438
      9 H2          0.0004   -0.0005   -0.0002 H         1 MOL         0.1483
     10 H3          2.3531   -0.3512    3.5799 H         1 MOL         0.1570
     11 H4         -1.5429   -1.7240    0.9485 H         1 MOL         0.0291
@<TRIPOS>BOND
     1    1    2 ar
     2    1    3 ar
     3    2    4 ar
     4    3    5 ar
     5    4    6 ar
     6    5    6 ar
     7    5    7 1
     8    1    8 1
     9    2    9 1
    10    3   10 1
    11    4   11 1
