@<TRIPOS>MOLECULE
123_trichlorobenzene
   12    12     0     0     0
SMALL
USER_CHARGES

@<TRIPOS>ATOM
      1 C1          1.8846   -1.0376   -0.1090 C.ar      1 MOL        -0.1137
      2 C2          0.8176   -0.4410    0.5626 C.ar      1 MOL        -0.1178
      3 C3          2.9348   -1.6038    0.6137 C.ar      1 MOL        -0.1178
      4 C4          0.8008   -0.4105    1.9570 C.ar      1 MOL         0.0236
      5 C5          2.9180   -1.5734    2.0082 C.ar      1 MOL         0.0236
      6 C6          1.8509   -0.9767    2.6799 C.ar      1 MOL         0.0167
      7 Cl1        -0.5560    0.3471    2.7183 Cl        1 MOL        -0.0627
      8 Cl2         4.2525   -2.2993    2.8366 Cl        1 MOL        -0.0627
      9 Cl3         1.8277   -0.9420    4.4177 Cl        1 MOL        -0.0450
     10 H1          1.8979   -1.0608   -1.1947 H         1 MOL         0.1464
     11 H2          0.0077   -0.0056   -0.0173 H         1 MOL         0.1548
     12 H3          3.7583   -2.0634    0.0727 H         1 MOL         0.1548
@<TRIPOS>BOND
     1    1    2 ar
     2    1    3 ar
     3    2    4 ar
     4    3    5 ar
     5    4    6 ar
     6    4    7 1
     7    5    6 ar
     8    5    8 1
     9    6    9 1
    10    1   10 1
    11    2   11 1
    12    3   12 1
