@<TRIPOS>MOLECULE
isopropyl_acetate
   17    16     0     0     0
SMALL
USER_CHARGES

@<TRIPOS>ATOM
      1 C1          0.9626    3.1042    2.2234 C.2       1 MOL         0.6338
      2 C2          1.0554    4.4990    1.6832 C.3       1 MOL        -0.1550
      3 C3          1.0765    0.0499    0.1958 C.3       1 MOL        -0.1133
      4 C4          2.8427    1.0382    1.6976 C.3       1 MOL        -0.1133
      5 C5          1.3532    0.9191    1.4130 C.3       1 MOL         0.1545
      6 O1          1.0165    2.8253    3.4136 O.2       1 MOL        -0.5362
      7 O2          0.8123    2.2184    1.1940 O.3       1 MOL        -0.4443
      8 H1          0.1358    4.7521    1.1498 H         1 MOL         0.0732
      9 H2          1.9208    4.5835    1.0211 H         1 MOL         0.0732
     10 H3          1.1821    5.2013    2.5123 H         1 MOL         0.0732
     11 H4          1.4532   -0.9673    0.3403 H         1 MOL         0.0487
     12 H5          0.0000    0.0000    0.0000 H         1 MOL         0.0487
     13 H6          1.5401    0.4709   -0.7032 H         1 MOL         0.0487
     14 H7          3.2882    0.0592    1.8989 H         1 MOL         0.0487
     15 H8          3.0145    1.6858    2.5641 H         1 MOL         0.0487
     16 H9          3.3699    1.4961    0.8534 H         1 MOL         0.0487
     17 H10         0.8468    0.4961    2.2868 H         1 MOL         0.0622
@<TRIPOS>BOND
     1    1    2 1
     2    1    6 2
     3    1    7 1
     4    3    5 1
     5    4    5 1
     6    5    7 1
     7    2    8 1
     8    2    9 1
     9    2   10 1
    10    3   11 1
    11    3   12 1
    12    3   13 1
    13    4   14 1
    14    4   15 1
    15    4   16 1
    16    5   17 1
