@<TRIPOS>MOLECULE
chloroethylene
    6     5     0     0     0
SMALL
USER_CHARGES

@<TRIPOS>ATOM
      1 C1         -0.7656    0.5572    0.5288 C.2       1 MOL        -0.2175
      2 C2         -1.9065   -0.0352    0.8791 C.2       1 MOL        -0.0645
      3 Cl1        -2.2543   -1.6760    0.5368 Cl        1 MOL        -0.1238
      4 H1         -0.5684    1.5990    0.7572 H         1 MOL         0.1288
      5 H2         -0.0000    0.0000    0.0000 H         1 MOL         0.1288
      6 H3         -2.7071    0.4651    1.4068 H         1 MOL         0.1482
@<TRIPOS>BOND
     1    1    2 2
     2    2    3 1
     3    1    4 1
     4    1    5 1
     5    2    6 1
