@<TRIPOS>MOLECULE
propionaldehyde
   10     9     0     0     0
SMALL
USER_CHARGES

@<TRIPOS>ATOM
      1 C1         -1.5416   -2.3179    0.1522 C.2       1 MOL         0.5594
      2 C2          0.4289   -0.8128    0.5955 C.3       1 MOL        -0.0861
      3 C3         -0.6597   -1.6801    1.1974 C.3       1 MOL        -0.1985
      4 O1         -1.3945   -2.1900   -1.0585 O.2       1 MOL        -0.5219
      5 H1         -2.3649   -2.9347    0.5523 H         1 MOL        -0.0087
      6 H2          0.0000    0.0000   -0.0000 H         1 MOL         0.0407
      7 H3          1.0813   -1.3993   -0.0600 H         1 MOL         0.0407
      8 H4          1.0448   -0.3708    1.3846 H         1 MOL         0.0407
      9 H5         -0.2139   -2.4828    1.7934 H         1 MOL         0.0669
     10 H6         -1.2989   -1.0801    1.8530 H         1 MOL         0.0669
@<TRIPOS>BOND
     1    1    3 1
     2    1    4 2
     3    2    3 1
     4    1    5 1
     5    2    6 1
     6    2    7 1
     7    2    8 1
     8    3    9 1
     9    3   10 1
