@<TRIPOS>MOLECULE
CUP08046_AM1BCC_v1_0
   40    41     0     0     0
SMALL
USER_CHARGES

@<TRIPOS>ATOM
      1 C1          5.0474   -1.7094   -1.2327 C.ar      1 MOL         0.0061
      2 C2          6.3388    0.2217   -1.8426 C.ar      1 MOL         0.0061
      3 C3          6.2761   -1.0412   -1.2391 C.ar      1 MOL        -0.1895
      4 C4          3.9132   -1.0983   -1.8020 C.ar      1 MOL        -0.2073
      5 C5          5.1823    0.8045   -2.4056 C.ar      1 MOL        -0.2073
      6 C6          3.9203    0.1814   -2.3962 C.ar      1 MOL         0.2977
      7 C7          0.7695    0.3106   -6.1862 C.3       1 MOL        -0.1255
      8 C8          0.1917    1.2598   -5.1752 C.3       1 MOL        -0.1255
      9 C9          1.2113    0.2332   -4.7454 C.3       1 MOL        -0.1376
     10 C10         1.3884    3.1242   -0.2299 C.3       1 MOL        -0.0891
     11 C11         2.6125    0.6247   -4.3742 C.3       1 MOL         0.2239
     12 C12         1.9918    1.8517   -0.8041 C.3       1 MOL        -0.1077
     13 C13         2.2217    1.9754   -2.3125 C.3       1 MOL         0.1979
     14 C14         7.5149   -1.6786   -0.6529 C.3       1 MOL         0.7050
     15 N1          2.7242    0.7152   -2.9027 N.pl3     1 MOL        -0.6912
     16 N2          2.6796   -1.8573   -1.7496 N.pl3     1 MOL         0.3201
     17 N3          5.3767    2.0940   -3.0324 N.pl3     1 MOL         0.3201
     18 O1          2.3958   -2.5331   -2.7481 O.3       1 MOL        -0.1862
     19 O2          2.0542   -1.8345   -0.6810 O.2       1 MOL        -0.1862
     20 O3          5.4105    2.1213   -4.2690 O.3       1 MOL        -0.1862
     21 O4          5.5418    3.0613   -2.2778 O.2       1 MOL        -0.1862
     22 F1          7.2346   -2.6178    0.2895 F         1 MOL        -0.2315
     23 F2          8.2634   -2.3008   -1.6012 F         1 MOL        -0.2315
     24 F3          8.3345   -0.7737   -0.0541 F         1 MOL        -0.2315
     25 H1          4.9641   -2.7007   -0.7847 H         1 MOL         0.1875
     26 H2          7.2901    0.7564   -1.8787 H         1 MOL         0.1875
     27 H3          0.1317   -0.4821   -6.5616 H         1 MOL         0.0743
     28 H4          1.4565    0.7111   -6.9232 H         1 MOL         0.0743
     29 H5          0.4870    2.3009   -5.2346 H         1 MOL         0.0743
     30 H6         -0.8359    1.1082   -4.8637 H         1 MOL         0.0743
     31 H7          0.8663   -0.6259   -4.1796 H         1 MOL         0.0964
     32 H8          2.0525    3.9795   -0.3908 H         1 MOL         0.0370
     33 H9          0.4226    3.3458   -0.6951 H         1 MOL         0.0370
     34 H10         1.2288    3.0154    0.8474 H         1 MOL         0.0370
     35 H11         2.8892    1.5781   -4.8400 H         1 MOL         0.0554
     36 H12         3.2875   -0.1432   -4.7743 H         1 MOL         0.0554
     37 H13         1.3199    1.0105   -0.5979 H         1 MOL         0.0528
     38 H14         2.9340    1.6452   -0.2840 H         1 MOL         0.0528
     39 H15         1.2592    2.2223   -2.7750 H         1 MOL         0.0735
     40 H16         2.8869    2.8146   -2.5364 H         1 MOL         0.0735
@<TRIPOS>BOND
     1    1    3 ar
     2    1    4 ar
     3    2    3 ar
     4    2    5 ar
     5    3   14 1
     6    4    6 ar
     7    4   16 1
     8    5    6 ar
     9    5   17 1
    10    6   15 1
    11    7    8 1
    12    7    9 1
    13    8    9 1
    14    9   11 1
    15   10   12 1
    16   11   15 1
    17   12   13 1
    18   13   15 1
    19   14   22 1
    20   14   23 1
    21   14   24 1
    22   16   18 1
    23   16   19 2
    24   17   20 1
    25   17   21 2
    26    1   25 1
    27    2   26 1
    28    7   27 1
    29    7   28 1
    30    8   29 1
    31    8   30 1
    32    9   31 1
    33   10   32 1
    34   10   33 1
    35   10   34 1
    36   11   35 1
    37   11   36 1
    38   12   37 1
    39   12   38 1
    40   13   39 1
    41   13   40 1
