@<TRIPOS>MOLECULE
bb.xyz	      0.0000000
   15    15     0     0     0
SMALL
USER_CHARGES

@<TRIPOS>ATOM
      1 C1         -0.0215    2.4020   -0.0111 C.ar      1 MOL        -0.1186
      2 C2          1.3658    2.4101   -0.0064 C.ar      1 MOL        -0.1271
      3 C3         -0.7037    1.1940   -0.0064 C.ar      1 MOL        -0.1271
      4 C4          2.0664    1.2144    0.0000 C.ar      1 MOL        -0.1094
      5 C5          0.0000    0.0000    0.0000 C.ar      1 MOL        -0.1094
      6 C6          1.3900    0.0000    0.0000 C.ar      1 MOL        -0.0917
      7 C7          2.1476   -1.2892   -0.0606 C.3       1 MOL         0.0613
      8 Br1         2.5639   -1.9963    1.7317 Br        1 MOL        -0.1905
      9 H1         -0.5664    3.3292   -0.0197 H         1 MOL         0.1313
     10 H2          1.9001    3.3434   -0.0110 H         1 MOL         0.1325
     11 H3         -1.7790    1.1814   -0.0110 H         1 MOL         0.1325
     12 H4          3.1428    1.2261    0.0015 H         1 MOL         0.1325
     13 H5         -0.5340   -0.9346    0.0014 H         1 MOL         0.1325
     14 H6          1.5867   -2.0718   -0.5434 H         1 MOL         0.0756
     15 H7          3.1039   -1.1802   -0.5441 H         1 MOL         0.0756
@<TRIPOS>BOND
     1    1    2 ar
     2    1    3 ar
     3    2    4 ar
     4    3    5 ar
     5    4    6 ar
     6    5    6 ar
     7    6    7 1
     8    7    8 1
     9    1    9 1
    10    2   10 1
    11    3   11 1
    12    4   12 1
    13    5   13 1
    14    7   14 1
    15    7   15 1
