@<TRIPOS>MOLECULE
2_methoxyethanolJG@337
   13    12     0     0     0
SMALL
USER_CHARGES

@<TRIPOS>ATOM
      1 C1         -4.3672   -0.3731   -0.1946 C.3       1 MOL         0.1178
      2 C2         -0.9936    0.8435    0.6398 C.3       1 MOL         0.1112
      3 C3         -2.4965    0.6776    0.7826 C.3       1 MOL         0.1908
      4 O1         -0.7194    1.6297   -0.5137 O.3       1 MOL        -0.6000
      5 O2         -2.9626   -0.1688   -0.2695 O.3       1 MOL        -0.4212
      6 H1         -4.6339   -0.8592    0.7488 H         1 MOL         0.0333
      7 H2         -4.6648   -1.0254   -1.0200 H         1 MOL         0.0333
      8 H3         -4.8985    0.5785   -0.2921 H         1 MOL         0.0333
      9 H4         -0.4999   -0.1255    0.5174 H         1 MOL        -0.0026
     10 H5         -0.5815    1.3595    1.5119 H         1 MOL        -0.0026
     11 H6         -2.9972    1.6496    0.7100 H         1 MOL         0.0512
     12 H7         -2.7280    0.2135    1.7474 H         1 MOL         0.0512
     13 H8          0.2468    1.7233   -0.5718 H         1 MOL         0.4043
@<TRIPOS>BOND
     1    1    5 1
     2    1    6 1
     3    1    7 1
     4    1    8 1
     5    2    3 1
     6    2    4 1
     7    2    9 1
     8    2   10 1
     9    3    5 1
    10    3   11 1
    11    3   12 1
    12    4   13 1
