@<TRIPOS>MOLECULE
dmetm.xyz	      0.0000000
   13    12     0     0     0
SMALL
USER_CHARGES

@<TRIPOS>ATOM
      1 C1          0.0000    0.0000    0.0000 C.3       1 MOL         0.1283
      2 C2          2.4437    1.4196   -2.3017 C.3       1 MOL         0.1284
      3 C3          1.9919    1.2499    0.0000 C.3       1 MOL         0.3298
      4 O1          1.4016    0.0000    0.0000 O.3       1 MOL        -0.4394
      5 O2          1.7959    1.9483   -1.1767 O.3       1 MOL        -0.4395
      6 H1         -0.3161   -1.0326    0.0492 H         1 MOL         0.0537
      7 H2         -0.3873    0.5320    0.8667 H         1 MOL         0.0141
      8 H3         -0.3975    0.4567   -0.8998 H         1 MOL         0.0265
      9 H4          2.2420    2.0889   -3.1263 H         1 MOL         0.0537
     10 H5          2.0757    0.4283   -2.5429 H         1 MOL         0.0265
     11 H6          3.5187    1.3677   -2.1409 H         1 MOL         0.0141
     12 H7          1.5778    1.8724    0.7865 H         1 MOL         0.0519
     13 H8          3.0489    1.0784    0.1757 H         1 MOL         0.0519
@<TRIPOS>BOND
     1    1    4 1
     2    2    5 1
     3    3    4 1
     4    3    5 1
     5    1    6 1
     6    1    7 1
     7    1    8 1
     8    2    9 1
     9    2   10 1
    10    2   11 1
    11    3   12 1
    12    3   13 1
