@<TRIPOS>MOLECULE
m_bis_trifluoromethyl__benzene
   18    18     0     0     0
SMALL
USER_CHARGES

@<TRIPOS>ATOM
      1 C1          1.8846   -1.0376   -0.1090 C.ar      1 MOL        -0.1059
      2 C2          0.8176   -0.4410    0.5626 C.ar      1 MOL        -0.1059
      3 C3          2.9348   -1.6038    0.6137 C.ar      1 MOL        -0.0930
      4 C4          0.8008   -0.4105    1.9570 C.ar      1 MOL        -0.0930
      5 C5          2.9180   -1.5734    2.0082 C.ar      1 MOL        -0.1083
      6 C6          1.8509   -0.9767    2.6799 C.ar      1 MOL        -0.1083
      7 C7          4.0541   -2.1853    2.7603 C.3       1 MOL         0.6906
      8 C8          1.8108   -0.9320    4.1721 C.3       1 MOL         0.6906
      9 F1          5.0145   -2.7244    1.9537 F         1 MOL        -0.2321
     10 F2          4.7155   -1.3006    3.5623 F         1 MOL        -0.2321
     11 F3          3.6526   -3.1976    3.5816 F         1 MOL        -0.2321
     12 F4          0.7000   -0.3138    4.6698 F         1 MOL        -0.2321
     13 F5          1.8244   -2.1665    4.7547 F         1 MOL        -0.2321
     14 F6          2.8737   -0.2625    4.7041 F         1 MOL        -0.2321
     15 H1          1.8974   -1.0617   -1.1945 H         1 MOL         0.1503
     16 H2         -0.0001   -0.0006   -0.0005 H         1 MOL         0.1503
     17 H3          3.7611   -2.0672    0.0812 H         1 MOL         0.1628
     18 H4         -0.0350    0.0566    2.4715 H         1 MOL         0.1628
@<TRIPOS>BOND
     1    1    2 ar
     2    1    3 ar
     3    2    4 ar
     4    3    5 ar
     5    4    6 ar
     6    5    6 ar
     7    5    7 1
     8    6    8 1
     9    7    9 1
    10    7   10 1
    11    7   11 1
    12    8   12 1
    13    8   13 1
    14    8   14 1
    15    1   15 1
    16    2   16 1
    17    3   17 1
    18    4   18 1
