@<TRIPOS>MOLECULE
SAMPL4_021
   22    23     0     0     0
SMALL
USER_CHARGES

@<TRIPOS>ATOM
      1 C1          4.8260    0.3920    6.2160 C.ar      1 MOL        -0.1200
      2 C2          4.8940   -0.8690    5.6230 C.ar      1 MOL        -0.1280
      3 C3          3.6490    1.1360    6.1390 C.ar      1 MOL        -0.1280
      4 C4          3.7850   -1.3850    4.9520 C.ar      1 MOL        -0.1135
      5 C5          2.5400    0.6210    5.4690 C.ar      1 MOL        -0.1135
      6 C6          2.1630   -1.4950    0.6430 C.2       1 MOL         0.2912
      7 C7          2.3250   -1.9620    1.9260 C.2       1 MOL        -0.2616
      8 C8          1.0110   -0.1940    1.8710 C.2       1 MOL         0.3944
      9 C9          2.6080   -0.6400    4.8750 C.ar      1 MOL        -0.1183
     10 C10         1.4220   -1.1910    4.1580 C.3       1 MOL         0.0886
     11 N1          1.3450   -0.3940    0.6160 N.2       1 MOL        -0.6680
     12 N2          1.5810   -1.1180    2.7020 N.pl3     1 MOL        -0.2079
     13 H1          5.6890    0.7930    6.7390 H         1 MOL         0.1350
     14 H2          5.8100   -1.4490    5.6830 H         1 MOL         0.1355
     15 H3          3.5950    2.1170    6.6020 H         1 MOL         0.1355
     16 H4          3.8470   -2.3670    4.4920 H         1 MOL         0.1350
     17 H5          1.6270    1.2080    5.4140 H         1 MOL         0.1350
     18 H6          2.5950   -1.8960   -0.2620 H         1 MOL         0.0411
     19 H7          2.8840   -2.7910    2.3380 H         1 MOL         0.1740
     20 H8          0.3670    0.5950    2.2360 H         1 MOL         0.0601
     21 H9          1.2370   -2.2440    4.4210 H         1 MOL         0.0667
     22 H10         0.4980   -0.6500    4.4190 H         1 MOL         0.0667
@<TRIPOS>BOND
     1    1    2 ar
     2    1    3 ar
     3    2    4 ar
     4    3    5 ar
     5    4    9 ar
     6    5    9 ar
     7    6    7 2
     8    6   11 1
     9    7   12 1
    10    8   11 2
    11    8   12 1
    12    9   10 1
    13   10   12 1
    14    1   13 1
    15    2   14 1
    16    3   15 1
    17    4   16 1
    18    5   17 1
    19    6   18 1
    20    7   19 1
    21    8   20 1
    22   10   21 1
    23   10   22 1
