@<TRIPOS>MOLECULE
naphthalene
   18    19     0     0     0
SMALL
USER_CHARGES

@<TRIPOS>ATOM
      1 C1         -0.5587   -2.0541    0.3109 C.ar      1 MOL        -0.1277
      2 C2          0.3405   -1.0310    0.0253 C.ar      1 MOL        -0.1277
      3 C3          3.0180   -5.3222   -0.1347 C.ar      1 MOL        -0.1277
      4 C4          3.9172   -4.2992   -0.4204 C.ar      1 MOL        -0.1277
      5 C5         -0.1222   -3.3788    0.3437 C.ar      1 MOL        -0.1175
      6 C6          1.6797   -1.3287   -0.2286 C.ar      1 MOL        -0.1175
      7 C7          1.6789   -5.0245    0.1193 C.ar      1 MOL        -0.1175
      8 C8          3.4807   -2.9745   -0.4531 C.ar      1 MOL        -0.1175
      9 C9          1.2221   -3.6968    0.0906 C.ar      1 MOL        -0.0369
     10 C10         2.1365   -2.6565   -0.1999 C.ar      1 MOL        -0.0369
     11 H1         -1.6010   -1.8219    0.5090 H         1 MOL         0.1317
     12 H2         -0.0010   -0.0003   -0.0005 H         1 MOL         0.1317
     13 H3          3.3579   -6.3536   -0.1086 H         1 MOL         0.1317
     14 H4          4.9596   -4.5322   -0.6170 H         1 MOL         0.1317
     15 H5         -0.8427   -4.1623    0.5694 H         1 MOL         0.1320
     16 H6          2.3651   -0.5130   -0.4498 H         1 MOL         0.1320
     17 H7          0.9939   -5.8401    0.3418 H         1 MOL         0.1320
     18 H8          4.2012   -2.1908   -0.6778 H         1 MOL         0.1320
@<TRIPOS>BOND
     1    1    2 ar
     2    1    5 ar
     3    2    6 ar
     4    3    4 ar
     5    3    7 ar
     6    4    8 ar
     7    5    9 ar
     8    6   10 ar
     9    7    9 ar
    10    8   10 ar
    11    9   10 ar
    12    1   11 1
    13    2   12 1
    14    3   13 1
    15    4   14 1
    16    5   15 1
    17    6   16 1
    18    7   17 1
    19    8   18 1
