@<TRIPOS>MOLECULE
1,1,2,2-tetrachloroethane
    8     7     0     0     0
SMALL
USER_CHARGES

@<TRIPOS>ATOM
      1 C1          0.4211    0.2029   -0.6170 C.3       1 MOL         0.1233
      2 C2         -0.4361    0.0140    0.6394 C.3       1 MOL         0.1220
      3 Cl1         1.5836   -1.1264   -0.8838 Cl        1 MOL        -0.1084
      4 Cl2        -0.6002    0.3914   -2.0717 Cl        1 MOL        -0.1288
      5 Cl3        -1.4326   -1.4674    0.5967 Cl        1 MOL        -0.1091
      6 Cl4         0.5748   -0.0003    2.1131 Cl        1 MOL        -0.1260
      7 H1          1.0081    1.1231   -0.5366 H         1 MOL         0.1138
      8 H2         -1.1274    0.8547    0.7527 H         1 MOL         0.1132
@<TRIPOS>BOND
     1    1    2 1
     2    1    3 1
     3    1    4 1
     4    2    5 1
     5    2    6 1
     6    1    7 1
     7    2    8 1
