@<TRIPOS>MOLECULE
n_hexane
   20    19     0     0     0
SMALL
USER_CHARGES

@<TRIPOS>ATOM
      1 C1         -0.7259   -0.7465   -0.3392 C.3       1 MOL        -0.0895
      2 C2         -3.1254   -2.6785   -5.9027 C.3       1 MOL        -0.0895
      3 C3         -0.8325   -0.7252   -1.8556 C.3       1 MOL        -0.0777
      4 C4         -3.0189   -2.7003   -4.3862 C.3       1 MOL        -0.0777
      5 C5         -1.8736   -1.7251   -2.3579 C.3       1 MOL        -0.0759
      6 C6         -1.9540   -1.7248   -3.8854 C.3       1 MOL        -0.0759
      7 H1         -1.6824   -0.4861    0.1252 H         1 MOL         0.0313
      8 H2          0.0236   -0.0237   -0.0016 H         1 MOL         0.0313
      9 H3         -0.4280   -1.7371    0.0191 H         1 MOL         0.0313
     10 H4         -3.3972   -1.6810   -6.2628 H         1 MOL         0.0313
     11 H5         -2.1761   -2.9649   -6.3667 H         1 MOL         0.0313
     12 H6         -3.8935   -3.3821   -6.2387 H         1 MOL         0.0313
     13 H7          0.1473   -0.9587   -2.2881 H         1 MOL         0.0372
     14 H8         -1.0991    0.2864   -2.1832 H         1 MOL         0.0372
     15 H9         -2.7762   -3.7176   -4.0576 H         1 MOL         0.0372
     16 H10        -3.9927   -2.4431   -3.9536 H         1 MOL         0.0372
     17 H11        -2.8557   -1.4750   -1.9383 H         1 MOL         0.0375
     18 H12        -1.6177   -2.7312   -2.0036 H         1 MOL         0.0375
     19 H13        -0.9783   -1.9988   -4.3048 H         1 MOL         0.0375
     20 H14        -2.1860   -0.7135   -4.2409 H         1 MOL         0.0375
@<TRIPOS>BOND
     1    1    3 1
     2    2    4 1
     3    3    5 1
     4    4    6 1
     5    5    6 1
     6    1    7 1
     7    1    8 1
     8    1    9 1
     9    2   10 1
    10    2   11 1
    11    2   12 1
    12    3   13 1
    13    3   14 1
    14    4   15 1
    15    4   16 1
    16    5   17 1
    17    5   18 1
    18    6   19 1
    19    6   20 1
