@<TRIPOS>MOLECULE
piperazine
   16    16     0     0     0
SMALL
USER_CHARGES

@<TRIPOS>ATOM
      1 C1          1.0039   -0.2215    0.3782 C.3       1 MOL         0.1287
      2 C2          1.0006   -1.5986    1.0417 C.3       1 MOL         0.1287
      3 C3          2.6914    0.5166    1.9303 C.3       1 MOL         0.1287
      4 C4          2.6833   -0.8624    2.5896 C.3       1 MOL         0.1287
      5 N1          1.3943    0.8215    1.3268 N.3       1 MOL        -0.7994
      6 N2          2.2997   -1.9124    1.6424 N.3       1 MOL        -0.7994
      7 H1          1.6829   -0.2167   -0.4837 H         1 MOL         0.0463
      8 H2          0.0002   -0.0000   -0.0003 H         1 MOL         0.0463
      9 H3          0.2142   -1.6498    1.8055 H         1 MOL         0.0463
     10 H4          0.7657   -2.3605    0.2904 H         1 MOL         0.0463
     11 H5          2.9207    1.2771    2.6846 H         1 MOL         0.0463
     12 H6          3.4803    0.5702    1.1695 H         1 MOL         0.0463
     13 H7          3.6847   -1.0840    2.9746 H         1 MOL         0.0463
     14 H8          2.0007   -0.8683    3.4490 H         1 MOL         0.0463
     15 H9          1.4445    1.7192    0.8465 H         1 MOL         0.3568
     16 H10         2.2424   -2.8061    2.1294 H         1 MOL         0.3568
@<TRIPOS>BOND
     1    1    2 1
     2    1    5 1
     3    2    6 1
     4    3    4 1
     5    3    5 1
     6    4    6 1
     7    1    7 1
     8    1    8 1
     9    2    9 1
    10    2   10 1
    11    3   11 1
    12    3   12 1
    13    4   13 1
    14    4   14 1
    15    5   15 1
    16    6   16 1
