@<TRIPOS>MOLECULE
1235_tetrachlorobenzene
   12    12     0     0     0
SMALL
USER_CHARGES

@<TRIPOS>ATOM
      1 C1          0.8178   -0.4385    0.5644 C.ar      1 MOL        -0.1156
      2 C2          2.9371   -1.5972    0.6197 C.ar      1 MOL        -0.1156
      3 C3          1.8867   -1.0341   -0.1051 C.ar      1 MOL         0.0296
      4 C4          0.7994   -0.4058    1.9588 C.ar      1 MOL         0.0308
      5 C5          2.9185   -1.5646    2.0141 C.ar      1 MOL         0.0308
      6 C6          1.8497   -0.9689    2.6836 C.ar      1 MOL         0.0141
      7 Cl1         1.9091   -1.0758   -1.8257 Cl        1 MOL        -0.0686
      8 Cl2        -0.5594    0.3502    2.7188 Cl        1 MOL        -0.0529
      9 Cl3         4.2564   -2.2822    2.8451 Cl        1 MOL        -0.0529
     10 Cl4         1.8259   -0.9293    4.4217 Cl        1 MOL        -0.0376
     11 H1         -0.0001   -0.0008   -0.0044 H         1 MOL         0.1690
     12 H2          3.7687   -2.0617    0.0935 H         1 MOL         0.1690
@<TRIPOS>BOND
     1    1    3 ar
     2    1    4 ar
     3    2    3 ar
     4    2    5 ar
     5    3    7 1
     6    4    6 ar
     7    4    8 1
     8    5    6 ar
     9    5    9 1
    10    6   10 1
    11    1   11 1
    12    2   12 1
