@<TRIPOS>MOLECULE
methyl_butanoate
   17    16     0     0     0
SMALL
USER_CHARGES

@<TRIPOS>ATOM
      1 C1          2.6749   -0.7723    3.1243 C.2       1 MOL         0.6291
      2 C2         -0.3728   -0.6665    0.7471 C.3       1 MOL        -0.0939
      3 C3          4.8603   -1.0201    3.9967 C.3       1 MOL         0.1281
      4 C4          1.8852   -0.8881    1.8405 C.3       1 MOL        -0.1254
      5 C5          0.4050   -0.5787    2.0501 C.3       1 MOL        -0.0744
      6 O1          2.2128   -0.4519    4.2107 O.2       1 MOL        -0.5382
      7 O2          3.9805   -1.0839    2.8696 O.3       1 MOL        -0.4432
      8 H1         -1.4296   -0.4402    0.9203 H         1 MOL         0.0375
      9 H2          0.0116    0.0477    0.0118 H         1 MOL         0.0375
     10 H3         -0.3065   -1.6715    0.3179 H         1 MOL         0.0375
     11 H4          5.6387   -0.2761    3.8106 H         1 MOL         0.0493
     12 H5          5.3117   -2.0013    4.1638 H         1 MOL         0.0493
     13 H6          4.2861   -0.7302    4.8799 H         1 MOL         0.0493
     14 H7          2.3099   -0.1867    1.1135 H         1 MOL         0.0761
     15 H8          1.9989   -1.9095    1.4604 H         1 MOL         0.0761
     16 H9         -0.0246   -1.2800    2.7756 H         1 MOL         0.0526
     17 H10         0.2888    0.4258    2.4744 H         1 MOL         0.0526
@<TRIPOS>BOND
     1    1    4 1
     2    1    6 2
     3    1    7 1
     4    2    5 1
     5    3    7 1
     6    4    5 1
     7    2    8 1
     8    2    9 1
     9    2   10 1
    10    3   11 1
    11    3   12 1
    12    3   13 1
    13    4   14 1
    14    4   15 1
    15    5   16 1
    16    5   17 1
