@<TRIPOS>MOLECULE
NN_dimethylaniline
   20    20     0     0     0
SMALL
USER_CHARGES

@<TRIPOS>ATOM
      1 C1          1.8846   -1.0376   -0.1090 C.ar      1 MOL        -0.1856
      2 C2          0.8176   -0.4410    0.5626 C.ar      1 MOL        -0.0879
      3 C3          2.9348   -1.6038    0.6137 C.ar      1 MOL        -0.0879
      4 C4          0.8008   -0.4105    1.9570 C.ar      1 MOL        -0.2062
      5 C5          2.9180   -1.5734    2.0082 C.ar      1 MOL        -0.2062
      6 C6          1.8509   -0.9767    2.6799 C.ar      1 MOL         0.1998
      7 C7          0.5753   -0.9576    4.8090 C.3       1 MOL         0.2224
      8 C8          3.0745   -0.9181    4.8385 C.3       1 MOL         0.2224
      9 N1          1.8337   -0.9465    4.0899 N.pl3     1 MOL        -0.7108
     10 H1          1.8974   -1.0609   -1.1947 H         1 MOL         0.1292
     11 H2          0.0001   -0.0003   -0.0006 H         1 MOL         0.1261
     12 H3          3.7655   -2.0684    0.0912 H         1 MOL         0.1261
     13 H4         -0.0360    0.0562    2.4705 H         1 MOL         0.1300
     14 H5          3.7416   -2.0175    2.5613 H         1 MOL         0.1300
     15 H6          0.1058    0.0283    4.7599 H         1 MOL         0.0331
     16 H7          0.7418   -1.2163    5.8582 H         1 MOL         0.0331
     17 H8         -0.1042   -1.6932    4.3703 H         1 MOL         0.0331
     18 H9          2.9530   -0.3188    5.7446 H         1 MOL         0.0331
     19 H10         3.8721   -0.4807    4.2318 H         1 MOL         0.0331
     20 H11         3.3672   -1.9321    5.1238 H         1 MOL         0.0331
@<TRIPOS>BOND
     1    1    2 ar
     2    1    3 ar
     3    2    4 ar
     4    3    5 ar
     5    4    6 ar
     6    5    6 ar
     7    6    9 1
     8    7    9 1
     9    8    9 1
    10    1   10 1
    11    2   11 1
    12    3   12 1
    13    4   13 1
    14    5   14 1
    15    7   15 1
    16    7   16 1
    17    7   17 1
    18    8   18 1
    19    8   19 1
    20    8   20 1
