@<TRIPOS>MOLECULE
SAMPL4_026
   21    20     0     0     0
SMALL
USER_CHARGES

@<TRIPOS>ATOM
      1 C1         -4.4000   -1.9110    0.3530 C.2       1 MOL         0.6341
      2 C2         -3.6510   -2.5190   -0.7940 C.3       1 MOL        -0.1501
      3 C3         -6.0370    3.6230   -1.8480 C.3       1 MOL        -0.0971
      4 C4         -6.9450    2.6350   -1.1480 C.3       1 MOL         0.1314
      5 C5         -6.0490   -0.3010    0.8790 C.3       1 MOL         0.1364
      6 C6         -6.9520    0.7120    0.2020 C.3       1 MOL         0.1244
      7 O1         -4.2410   -2.2320    1.5230 O.2       1 MOL        -0.5440
      8 O2         -5.2640   -0.9660   -0.1170 O.3       1 MOL        -0.4439
      9 O3         -6.1480    1.6700   -0.4750 O.3       1 MOL        -0.4246
     10 H1         -4.1970   -3.3850   -1.1750 H         1 MOL         0.0757
     11 H2         -2.6480   -2.8070   -0.4710 H         1 MOL         0.0757
     12 H3         -3.5600   -1.7830   -1.5980 H         1 MOL         0.0757
     13 H4         -5.3960    4.1410   -1.1290 H         1 MOL         0.0460
     14 H5         -5.4050    3.1140   -2.5830 H         1 MOL         0.0460
     15 H6         -6.6250    4.3670   -2.3960 H         1 MOL         0.0460
     16 H7         -7.5840    2.1210   -1.8730 H         1 MOL         0.0252
     17 H8         -7.5750    3.1450   -0.4140 H         1 MOL         0.0252
     18 H9         -6.6330   -1.0570    1.4120 H         1 MOL         0.0677
     19 H10        -5.3680    0.1970    1.5750 H         1 MOL         0.0677
     20 H11        -7.5690    1.2410    0.9350 H         1 MOL         0.0427
     21 H12        -7.5940    0.2200   -0.5340 H         1 MOL         0.0427
@<TRIPOS>BOND
     1    1    2 1
     2    1    7 2
     3    1    8 1
     4    3    4 1
     5    4    9 1
     6    5    6 1
     7    5    8 1
     8    6    9 1
     9    2   10 1
    10    2   11 1
    11    2   12 1
    12    3   13 1
    13    3   14 1
    14    3   15 1
    15    4   16 1
    16    4   17 1
    17    5   18 1
    18    5   19 1
    19    6   20 1
    20    6   21 1
