@<TRIPOS>MOLECULE
CUP08029_AM1BCC_v1_0
   25    27     0     0     0
SMALL
USER_CHARGES

@<TRIPOS>ATOM
      1 C1         -0.2908   -0.4740   -2.7047 C.2       1 MOL        -0.0435
      2 C2         -1.4890   -1.0683   -2.7386 C.2       1 MOL        -0.0435
      3 C3         -0.2208    1.0649   -0.1012 C.3       1 MOL         0.1641
      4 C4         -2.8767   -0.2507   -0.1769 C.3       1 MOL         0.1641
      5 C5         -1.1215    1.3945   -1.2952 C.3       1 MOL        -0.0966
      6 C6         -2.5389    0.6918   -1.3357 C.3       1 MOL        -0.0966
      7 C7         -0.5288    1.0235   -2.6987 C.3       1 MOL         0.0786
      8 C8         -2.5370    0.0277   -2.7560 C.3       1 MOL         0.0786
      9 C9         -1.7851    1.0860   -3.6270 C.3       1 MOL         0.1365
     10 O1         -2.0438    1.2132    3.2250 O.2       1 MOL        -0.4382
     11 O2         -0.8090    1.5758    1.0882 O.3       1 MOL        -0.4018
     12 O3         -2.9815    0.5001    1.0261 O.3       1 MOL        -0.4018
     13 S1         -1.6658    0.5230    1.9526 S.o       1 MOL         0.7947
     14 Cl1         1.2306   -1.2069   -2.5888 Cl        1 MOL        -0.0066
     15 Cl2        -1.8306   -2.7251   -2.6751 Cl        1 MOL        -0.0066
     16 Cl3         0.8254    2.0265   -3.1871 Cl        1 MOL        -0.0709
     17 Cl4        -4.1307   -0.4314   -3.3286 Cl        1 MOL        -0.0709
     18 Cl5        -1.4848    0.5782   -5.3342 Cl        1 MOL        -0.0861
     19 Cl6        -2.5800    2.6948   -3.7143 Cl        1 MOL        -0.0861
     20 H1          0.0053   -0.0042   -0.0120 H         1 MOL         0.0522
     21 H2          0.7411    1.5761   -0.2164 H         1 MOL         0.0522
     22 H3         -3.8599   -0.7026   -0.3476 H         1 MOL         0.0522
     23 H4         -2.1680   -1.0809   -0.0738 H         1 MOL         0.0522
     24 H5         -1.3090    2.4772   -1.2507 H         1 MOL         0.1120
     25 H6         -3.2889    1.4956   -1.3073 H         1 MOL         0.1120
@<TRIPOS>BOND
     1    1    2 2
     2    1    7 1
     3    1   14 1
     4    2    8 1
     5    2   15 1
     6    3    5 1
     7    3   11 1
     8    4    6 1
     9    4   12 1
    10    5    6 1
    11    5    7 1
    12    6    8 1
    13    7    9 1
    14    7   16 1
    15    8    9 1
    16    8   17 1
    17    9   18 1
    18    9   19 1
    19   10   13 2
    20   11   13 1
    21   12   13 1
    22    3   20 1
    23    3   21 1
    24    4   22 1
    25    4   23 1
    26    5   24 1
    27    6   25 1
