@<TRIPOS>MOLECULE
di_n_propylamine
   22    21     0     0     0
SMALL
USER_CHARGES

@<TRIPOS>ATOM
      1 C1         -1.5498   -1.2782    0.9741 C.3       1 MOL        -0.0889
      2 C2          3.4123    0.6160    6.1742 C.3       1 MOL        -0.0889
      3 C3         -1.3233   -0.8631    2.4196 C.3       1 MOL        -0.0793
      4 C4          1.9484    0.3578    5.8524 C.3       1 MOL        -0.0793
      5 C5          0.1575   -0.6240    2.7038 C.3       1 MOL         0.1708
      6 C6          1.7608   -0.0265    4.3870 C.3       1 MOL         0.1708
      7 N1          0.3507   -0.2480    4.0992 N.3       1 MOL        -0.8323
      8 H1         -1.2015   -0.5029    0.2842 H         1 MOL         0.0333
      9 H2         -1.0175   -2.2069    0.7445 H         1 MOL         0.0333
     10 H3         -2.6159   -1.4431    0.7896 H         1 MOL         0.0333
     11 H4          4.0185   -0.2759    5.9857 H         1 MOL         0.0333
     12 H5          3.8089    1.4358    5.5666 H         1 MOL         0.0333
     13 H6          3.5266    0.8880    7.2281 H         1 MOL         0.0333
     14 H7         -1.7118   -1.6465    3.0815 H         1 MOL         0.0422
     15 H8         -1.8988    0.0480    2.6236 H         1 MOL         0.0422
     16 H9          1.3676    1.2592    6.0825 H         1 MOL         0.0422
     17 H10         1.5758   -0.4425    6.5033 H         1 MOL         0.0422
     18 H11         0.5443    0.1709    2.0566 H         1 MOL         0.0249
     19 H12         0.7329   -1.5326    2.4962 H         1 MOL         0.0249
     20 H13         2.3254   -0.9371    4.1584 H         1 MOL         0.0249
     21 H14         2.1367    0.7709    3.7368 H         1 MOL         0.0249
     22 H15        -0.1700    0.6072    4.2899 H         1 MOL         0.3586
@<TRIPOS>BOND
     1    1    3 1
     2    2    4 1
     3    3    5 1
     4    4    6 1
     5    5    7 1
     6    6    7 1
     7    1    8 1
     8    1    9 1
     9    1   10 1
    10    2   11 1
    11    2   12 1
    12    2   13 1
    13    3   14 1
    14    3   15 1
    15    4   16 1
    16    4   17 1
    17    5   18 1
    18    5   19 1
    19    6   20 1
    20    6   21 1
    21    7   22 1
