@<TRIPOS>MOLECULE
dimethyl_sulfate
   13    12     0     0     0
SMALL
USER_CHARGES

@<TRIPOS>ATOM
      1 C1          0.9056    0.5937   -0.1920 C.3       1 MOL         0.1661
      2 C2          2.8912    4.6411    2.3337 C.3       1 MOL         0.1661
      3 O1          2.4485    3.2406   -0.3603 O.2       1 MOL        -0.6635
      4 O2          3.4635    1.6803    1.3422 O.2       1 MOL        -0.6635
      5 O3          1.0186    1.5714    0.8310 O.3       1 MOL        -0.5728
      6 O4          1.9981    3.5680    2.0770 O.3       1 MOL        -0.5728
      7 S1          2.3591    2.5054    0.8880 S.o2      1 MOL         1.8337
      8 H1          1.8788    0.4483   -0.6672 H         1 MOL         0.0511
      9 H2          0.1722    0.9230   -0.9324 H         1 MOL         0.0511
     10 H3          0.5748   -0.3483    0.2516 H         1 MOL         0.0511
     11 H4          2.6068    5.5055    1.7287 H         1 MOL         0.0511
     12 H5          3.9114    4.3331    2.0914 H         1 MOL         0.0511
     13 H6          2.8342    4.9055    3.3923 H         1 MOL         0.0511
@<TRIPOS>BOND
     1    1    5 1
     2    2    6 1
     3    3    7 2
     4    4    7 2
     5    5    7 1
     6    6    7 1
     7    1    8 1
     8    1    9 1
     9    1   10 1
    10    2   11 1
    11    2   12 1
    12    2   13 1
