@<TRIPOS>MOLECULE
butanoic_acid
   14    13     0     0     0
SMALL
USER_CHARGES

@<TRIPOS>ATOM
      1 C1          0.3282    0.2592    3.5153 C.2       1 MOL         0.6345
      2 C2         -1.2615   -1.9835    0.7852 C.3       1 MOL        -0.0943
      3 C3         -0.7524   -0.3453    2.6537 C.3       1 MOL        -0.1247
      4 C4         -0.1903   -1.3680    1.6737 C.3       1 MOL        -0.0749
      5 O1          1.5220    0.0259    3.3744 O.2       1 MOL        -0.5485
      6 O2         -0.1577    1.1129    4.4497 O.3       1 MOL        -0.6111
      7 H1         -1.7239   -1.2316    0.1385 H         1 MOL         0.0381
      8 H2         -2.0472   -2.4531    1.3855 H         1 MOL         0.0381
      9 H3         -0.8213   -2.7525    0.1425 H         1 MOL         0.0381
     10 H4         -1.3176    0.4380    2.1369 H         1 MOL         0.0777
     11 H5         -1.4650   -0.8311    3.3313 H         1 MOL         0.0777
     12 H6          0.2955   -2.1703    2.2412 H         1 MOL         0.0533
     13 H7          0.5794   -0.9078    1.0429 H         1 MOL         0.0533
     14 H8          0.5155    1.5425    5.0190 H         1 MOL         0.4429
@<TRIPOS>BOND
     1    1    3 1
     2    1    5 2
     3    1    6 1
     4    2    4 1
     5    3    4 1
     6    2    7 1
     7    2    8 1
     8    2    9 1
     9    3   10 1
    10    3   11 1
    11    4   12 1
    12    4   13 1
    13    6   14 1
