@<TRIPOS>MOLECULE
SAMPL4_011
   23    23     0     0     0
SMALL
USER_CHARGES

@<TRIPOS>ATOM
      1 C1          2.8440   -1.7000    3.2480 C.ar      1 MOL        -0.1100
      2 C2          1.6480   -0.9850    3.2960 C.ar      1 MOL        -0.1896
      3 C3          3.4250   -2.0050    2.0170 C.ar      1 MOL         0.0391
      4 C4          2.8100   -1.5940    0.8350 C.ar      1 MOL         0.1231
      5 C5          1.6130   -0.8790    0.8830 C.ar      1 MOL         0.0801
      6 C6          1.0320   -0.5750    2.1140 C.ar      1 MOL         0.0504
      7 C7          1.0810   -0.6920    4.6080 C.2       1 MOL         0.5795
      8 C8          5.1570   -3.0850    3.2370 C.3       1 MOL         0.1187
      9 C9          0.0950   -1.3890   -0.8750 C.3       1 MOL         0.1137
     10 O1          0.7560   -1.5700    5.4090 O.2       1 MOL        -0.5311
     11 O2          3.3800   -1.8930   -0.3680 O.3       1 MOL        -0.4811
     12 O3          4.5940   -2.7040    1.9840 O.3       1 MOL        -0.3469
     13 O4          1.0260   -0.4860   -0.2840 O.3       1 MOL        -0.3159
     14 Cl1        -0.4540    0.3140    2.1630 Cl        1 MOL        -0.0614
     15 H1          3.3290   -2.0230    4.1660 H         1 MOL         0.1690
     16 H2          0.9450    0.3770    4.8740 H         1 MOL         0.0192
     17 H3          6.0860   -3.6360    3.0680 H         1 MOL         0.0514
     18 H4          4.4450   -3.7100    3.7820 H         1 MOL         0.0514
     19 H5          5.3700   -2.1860    3.8200 H         1 MOL         0.0514
     20 H6         -0.2990   -0.9560   -1.7980 H         1 MOL         0.0484
     21 H7         -0.7210   -1.5840   -0.1740 H         1 MOL         0.0484
     22 H8          0.6070   -2.3270   -1.1050 H         1 MOL         0.0484
     23 H9          4.2010   -2.3900   -0.2330 H         1 MOL         0.4440
@<TRIPOS>BOND
     1    1    2 ar
     2    1    3 ar
     3    2    6 ar
     4    2    7 1
     5    3    4 ar
     6    3   12 1
     7    4    5 ar
     8    4   11 1
     9    5    6 ar
    10    5   13 1
    11    6   14 1
    12    7   10 2
    13    8   12 1
    14    9   13 1
    15    1   15 1
    16    7   16 1
    17    8   17 1
    18    8   18 1
    19    8   19 1
    20    9   20 1
    21    9   21 1
    22    9   22 1
    23   11   23 1
