@<TRIPOS>MOLECULE
ethyl_acetate
   14    13     0     0     0
SMALL
USER_CHARGES

@<TRIPOS>ATOM
      1 C1         -2.4436   -0.2296   -0.7731 C.2       1 MOL         0.6293
      2 C2         -1.6440   -0.2458    0.4943 C.3       1 MOL        -0.1559
      3 C3         -1.8914    1.8641   -3.7227 C.3       1 MOL        -0.1091
      4 C4         -2.5898    0.8104   -2.8899 C.3       1 MOL         0.1396
      5 O1         -3.4150   -0.9444   -0.9795 O.2       1 MOL        -0.5304
      6 O2         -1.9187    0.6904   -1.6316 O.3       1 MOL        -0.4416
      7 H1         -1.6904    0.7347    0.9747 H         1 MOL         0.0738
      8 H2         -0.6086   -0.5196    0.2762 H         1 MOL         0.0738
      9 H3         -2.0634   -0.9893    1.1783 H         1 MOL         0.0738
     10 H4         -2.3801    1.9809   -4.6940 H         1 MOL         0.0481
     11 H5         -1.8958    2.8297   -3.2063 H         1 MOL         0.0481
     12 H6         -0.8425    1.5948   -3.8851 H         1 MOL         0.0481
     13 H7         -2.5639   -0.1588   -3.3969 H         1 MOL         0.0513
     14 H8         -3.6313    1.0923   -2.7085 H         1 MOL         0.0513
@<TRIPOS>BOND
     1    1    2 1
     2    1    5 2
     3    1    6 1
     4    3    4 1
     5    4    6 1
     6    2    7 1
     7    2    8 1
     8    2    9 1
     9    3   10 1
    10    3   11 1
    11    3   12 1
    12    4   13 1
    13    4   14 1
