@<TRIPOS>MOLECULE
SAMPL4_013
   27    27     0     0     0
SMALL
USER_CHARGES

@<TRIPOS>ATOM
      1 C1         -0.5830   -0.6710   -1.2600 C.2       1 MOL        -0.1572
      2 C2          0.5220    0.0960   -1.2540 C.2       1 MOL        -0.1114
      3 C3         -2.3020   -0.3050    3.2910 C.2       1 MOL        -0.2240
      4 C4         -1.4430   -0.9300    2.4730 C.2       1 MOL        -0.1114
      5 C5         -1.3260   -1.0780   -0.0210 C.3       1 MOL        -0.0412
      6 C6          0.6110   -0.1310    1.2810 C.3       1 MOL        -0.1034
      7 C7          1.1470    0.5830    0.0320 C.3       1 MOL         0.1793
      8 C8         -0.9170   -0.2800    1.2280 C.3       1 MOL        -0.0295
      9 C9          1.2100    0.4880   -2.5300 C.3       1 MOL        -0.0569
     10 C10        -0.9530   -2.3210    2.7500 C.3       1 MOL        -0.0609
     11 O1          0.8990    1.9810    0.1750 O.3       1 MOL        -0.5958
     12 H1         -0.9900   -1.0240   -2.2040 H         1 MOL         0.1240
     13 H2         -2.6760   -0.7840    4.1890 H         1 MOL         0.1130
     14 H3         -2.6510    0.7010    3.0820 H         1 MOL         0.1130
     15 H4         -2.4010   -0.9440   -0.1950 H         1 MOL         0.0522
     16 H5         -1.1630   -2.1530    0.1340 H         1 MOL         0.0522
     17 H6          1.0730   -1.1240    1.3570 H         1 MOL         0.0482
     18 H7          0.8980    0.4290    2.1800 H         1 MOL         0.0482
     19 H8          2.2330    0.4420   -0.0040 H         1 MOL         0.0357
     20 H9         -1.3650    0.7210    1.1690 H         1 MOL         0.0677
     21 H10         0.7920    1.4240   -2.8930 H         1 MOL         0.0450
     22 H11         1.0640   -0.2910   -3.2750 H         1 MOL         0.0450
     23 H12         2.2750    0.6100   -2.3440 H         1 MOL         0.0450
     24 H13        -1.6180   -3.0570    2.2860 H         1 MOL         0.0417
     25 H14         0.0540   -2.4560    2.3440 H         1 MOL         0.0417
     26 H15        -0.9120   -2.5380    3.8230 H         1 MOL         0.0417
     27 H16         1.3150    2.2500    1.0080 H         1 MOL         0.3980
@<TRIPOS>BOND
     1    1    2 2
     2    1    5 1
     3    2    7 1
     4    2    9 1
     5    3    4 2
     6    4    8 1
     7    4   10 1
     8    5    8 1
     9    6    7 1
    10    6    8 1
    11    7   11 1
    12    1   12 1
    13    3   13 1
    14    3   14 1
    15    5   15 1
    16    5   16 1
    17    6   17 1
    18    6   18 1
    19    7   19 1
    20    8   20 1
    21    9   21 1
    22    9   22 1
    23    9   23 1
    24   10   24 1
    25   10   25 1
    26   10   26 1
    27   11   27 1
