@<TRIPOS>MOLECULE
2_ethylpyrazine
   16    16     0     0     0
SMALL
USER_CHARGES

@<TRIPOS>ATOM
      1 C1         -1.7559   -1.1746    0.4303 C.ar      1 MOL         0.2733
      2 C2         -0.4277   -0.9882    0.1159 C.ar      1 MOL         0.2853
      3 C3         -1.4465   -3.4402    0.3942 C.ar      1 MOL         0.2787
      4 C4         -0.1183   -3.2537    0.0799 C.ar      1 MOL         0.3004
      5 C5          1.4586   -4.8585    1.1865 C.3       1 MOL        -0.0887
      6 C6          0.7837   -4.4227   -0.1125 C.3       1 MOL        -0.1261
      7 N1         -2.2892   -2.4040    0.5751 N.ar      1 MOL        -0.6276
      8 N2          0.4150   -2.0243   -0.0647 N.ar      1 MOL        -0.6315
      9 H1         -2.4324   -0.3415    0.5754 H         1 MOL         0.0336
     10 H2          0.0000   -0.0000   -0.0002 H         1 MOL         0.0330
     11 H3         -1.8820   -4.4254    0.5127 H         1 MOL         0.0329
     12 H4          2.0654   -4.0479    1.6041 H         1 MOL         0.0403
     13 H5          2.1135   -5.7185    1.0152 H         1 MOL         0.0403
     14 H6          0.7148   -5.1430    1.9385 H         1 MOL         0.0403
     15 H7          0.2253   -5.2771   -0.5300 H         1 MOL         0.0578
     16 H8          1.5609   -4.1923   -0.8602 H         1 MOL         0.0578
@<TRIPOS>BOND
     1    1    2 ar
     2    1    7 ar
     3    2    8 ar
     4    3    4 ar
     5    3    7 ar
     6    4    6 1
     7    4    8 ar
     8    5    6 1
     9    1    9 1
    10    2   10 1
    11    3   11 1
    12    5   12 1
    13    5   13 1
    14    5   14 1
    15    6   15 1
    16    6   16 1
