@<TRIPOS>MOLECULE
2-chlorodibenzo-p-dioxin
   22    24     0     0     0
SMALL
USER_CHARGES

@<TRIPOS>ATOM
      1 C1         -1.8584    0.7400    0.8000 C.ar      1 MOL        -0.1257
      2 C2         -1.0039   -0.2568    0.3257 C.ar      1 MOL        -0.1261
      3 C3         -3.1487    0.4152    1.2196 C.ar      1 MOL        -0.1150
      4 C4         -1.4367   -1.5819    0.2693 C.ar      1 MOL        -0.1145
      5 C5         -6.5287   -2.8214    1.9320 C.ar      1 MOL        -0.1102
      6 C6         -6.9616   -4.1465    1.8755 C.ar      1 MOL        -0.1224
      7 C7         -4.8168   -4.8184    0.9815 C.ar      1 MOL        -0.1134
      8 C8         -3.5799   -0.9097    1.1626 C.ar      1 MOL         0.0614
      9 C9         -2.7266   -1.9051    0.6889 C.ar      1 MOL         0.0615
     10 C10        -5.2389   -2.4982    1.5123 C.ar      1 MOL         0.0643
     11 C11        -4.3856   -3.4936    1.0385 C.ar      1 MOL         0.0723
     12 C12        -6.1071   -5.1433    1.4010 C.ar      1 MOL         0.0182
     13 O1         -4.8561   -1.1828    1.5855 O.3       1 MOL        -0.2219
     14 O2         -3.1093   -3.2205    0.6157 O.3       1 MOL        -0.2222
     15 Cl1        -6.6470   -6.7762    1.3335 Cl        1 MOL        -0.0830
     16 H1         -1.5178    1.7705    0.8425 H         1 MOL         0.1408
     17 H2          0.0001   -0.0000    0.0002 H         1 MOL         0.1409
     18 H3         -3.8082    1.1962    1.5875 H         1 MOL         0.1559
     19 H4         -0.7661   -2.3524   -0.1008 H         1 MOL         0.1561
     20 H5         -7.1992   -2.0509    2.3024 H         1 MOL         0.1599
     21 H6         -7.9688   -4.3890    2.2049 H         1 MOL         0.1540
     22 H7         -4.1461   -5.5897    0.6107 H         1 MOL         0.1693
@<TRIPOS>BOND
     1    1    2 ar
     2    1    3 ar
     3    2    4 ar
     4    3    8 ar
     5    4    9 ar
     6    5    6 ar
     7    5   10 ar
     8    6   12 ar
     9    7   11 ar
    10    7   12 ar
    11    8    9 ar
    12    8   13 1
    13    9   14 1
    14   10   11 ar
    15   10   13 1
    16   11   14 1
    17   12   15 1
    18    1   16 1
    19    2   17 1
    20    3   18 1
    21    4   19 1
    22    5   20 1
    23    6   21 1
    24    7   22 1
