@<TRIPOS>MOLECULE
CUP08052_AM1BCC_v1_0
   27    27     0     0     0
SMALL
USER_CHARGES

@<TRIPOS>ATOM
      1 C1         -1.6612   -2.3966   -1.3850 C.2       1 MOL        -0.1911
      2 C2         -1.4908   -1.2337   -0.7444 C.2       1 MOL         0.1086
      3 C3         -2.9298   -2.6038   -2.1503 C.2       1 MOL         0.7280
      4 C4         -3.5680   -0.3603   -1.6610 C.2       1 MOL         0.8142
      5 C5         -0.3253   -0.8663    0.1284 C.3       1 MOL        -0.0800
      6 C6         -4.4559   -2.5313   -4.6570 C.3       1 MOL        -0.1039
      7 C7         -6.0399   -2.0609   -2.7584 C.3       1 MOL        -0.1039
      8 C8         -5.0931   -0.2108   -4.1744 C.3       1 MOL        -0.1039
      9 C9         -4.7754   -1.5651   -3.4835 C.3       1 MOL         0.1366
     10 N1         -2.4684   -0.2810   -0.8492 N.am      1 MOL        -0.4742
     11 N2         -3.6252   -1.4512   -2.5190 N.am      1 MOL        -0.4754
     12 O1         -3.3022   -3.7501   -2.3959 O.2       1 MOL        -0.5940
     13 O2         -4.4125    0.5252   -1.5560 O.2       1 MOL        -0.6404
     14 Cl1        -0.5482   -3.7083   -1.3172 Cl        1 MOL        -0.0427
     15 H1          0.1549    0.0433   -0.2486 H         1 MOL         0.0705
     16 H2          0.4433   -1.6417    0.1787 H         1 MOL         0.0705
     17 H3         -0.6657   -0.6744    1.1517 H         1 MOL         0.0705
     18 H4         -3.4795   -2.3015   -5.0984 H         1 MOL         0.0509
     19 H5         -4.4558   -3.5826   -4.3577 H         1 MOL         0.0509
     20 H6         -5.2079   -2.4565   -5.4519 H         1 MOL         0.0509
     21 H7         -6.3353   -1.3764   -1.9558 H         1 MOL         0.0509
     22 H8         -5.8822   -3.0445   -2.3032 H         1 MOL         0.0509
     23 H9         -6.8850   -2.1465   -3.4507 H         1 MOL         0.0509
     24 H10        -5.5882    0.5019   -3.5095 H         1 MOL         0.0509
     25 H11        -4.1794    0.2565   -4.5594 H         1 MOL         0.0509
     26 H12        -5.7808   -0.3446   -5.0183 H         1 MOL         0.0509
     27 H13        -2.4204    0.5666   -0.2934 H         1 MOL         0.3532
@<TRIPOS>BOND
     1    1    2 2
     2    1    3 1
     3    1   14 1
     4    2    5 1
     5    2   10 1
     6    3   11 am
     7    3   12 2
     8    4   10 am
     9    4   11 am
    10    4   13 2
    11    6    9 1
    12    7    9 1
    13    8    9 1
    14    9   11 1
    15    5   15 1
    16    5   16 1
    17    5   17 1
    18    6   18 1
    19    6   19 1
    20    6   20 1
    21    7   21 1
    22    7   22 1
    23    7   23 1
    24    8   24 1
    25    8   25 1
    26    8   26 1
    27   10   27 1
