@<TRIPOS>MOLECULE
25_dimethyltetrahydrofuran
   19    19     0     0     0
SMALL
USER_CHARGES

@<TRIPOS>ATOM
      1 C1          0.0426    0.3841    1.0264 C.3       1 MOL        -0.1062
      2 C2         -1.3419    0.3843    1.6262 C.3       1 MOL        -0.1062
      3 C3          0.7703   -0.5847    1.9435 C.3       1 MOL         0.1366
      4 C4         -1.5100   -1.0786    2.0019 C.3       1 MOL         0.1366
      5 C5          1.9442   -1.2789    1.2804 C.3       1 MOL        -0.1003
      6 C6         -2.4703   -1.2999    3.1546 C.3       1 MOL        -0.1003
      7 O1         -0.2022   -1.5600    2.3578 O.3       1 MOL        -0.4301
      8 H1          0.0020   -0.0037    0.0010 H         1 MOL         0.0538
      9 H2          0.5055    1.3745    1.0005 H         1 MOL         0.0538
     10 H3         -1.3598    1.0223    2.5180 H         1 MOL         0.0538
     11 H4         -2.1138    0.7369    0.9365 H         1 MOL         0.0538
     12 H5          1.1154   -0.0695    2.8471 H         1 MOL         0.0521
     13 H6         -1.8426   -1.6601    1.1348 H         1 MOL         0.0521
     14 H7          2.3739   -2.0306    1.9491 H         1 MOL         0.0418
     15 H8          1.6259   -1.7779    0.3602 H         1 MOL         0.0418
     16 H9          2.7255   -0.5558    1.0278 H         1 MOL         0.0418
     17 H10        -2.0339   -0.9428    4.0923 H         1 MOL         0.0418
     18 H11        -3.4071   -0.7613    2.9835 H         1 MOL         0.0418
     19 H12        -2.6997   -2.3639    3.2648 H         1 MOL         0.0418
@<TRIPOS>BOND
     1    1    2 1
     2    1    3 1
     3    2    4 1
     4    3    5 1
     5    3    7 1
     6    4    6 1
     7    4    7 1
     8    1    8 1
     9    1    9 1
    10    2   10 1
    11    2   11 1
    12    3   12 1
    13    4   13 1
    14    5   14 1
    15    5   15 1
    16    5   16 1
    17    6   17 1
    18    6   18 1
    19    6   19 1
