@<TRIPOS>MOLECULE
1,2,3,7-tetrachlorodibenzo-p-dioxin
   22    24     0     0     0
SMALL
USER_CHARGES

@<TRIPOS>ATOM
      1 C1         -3.1487    0.4152    1.2196 C.ar      1 MOL        -0.1042
      2 C2         -1.8584    0.7400    0.8000 C.ar      1 MOL        -0.1188
      3 C3         -1.4367   -1.5819    0.2693 C.ar      1 MOL        -0.1101
      4 C4         -4.8168   -4.8184    0.9815 C.ar      1 MOL        -0.1080
      5 C5         -3.5799   -0.9097    1.1626 C.ar      1 MOL         0.0599
      6 C6         -2.7266   -1.9051    0.6889 C.ar      1 MOL         0.0694
      7 C7         -4.3856   -3.4936    1.0385 C.ar      1 MOL         0.0798
      8 C8         -5.2389   -2.4982    1.5123 C.ar      1 MOL         0.0753
      9 C9         -1.0039   -0.2568    0.3257 C.ar      1 MOL         0.0199
     10 C10        -6.1071   -5.1433    1.4010 C.ar      1 MOL         0.0247
     11 C11        -6.5287   -2.8214    1.9320 C.ar      1 MOL         0.0298
     12 C12        -6.9616   -4.1465    1.8755 C.ar      1 MOL         0.0154
     13 O1         -4.8561   -1.1828    1.5855 O.3       1 MOL        -0.2041
     14 O2         -3.1093   -3.2205    0.6157 O.3       1 MOL        -0.2137
     15 Cl1         0.5869    0.1501   -0.1904 Cl        1 MOL        -0.0760
     16 Cl2        -6.5765   -6.8064    1.3031 Cl        1 MOL        -0.0497
     17 Cl3        -7.5665   -1.5565    2.5168 Cl        1 MOL        -0.0263
     18 Cl4        -8.5681   -4.5652    2.3960 Cl        1 MOL        -0.0345
     19 H1         -3.8085    1.1959    1.5875 H         1 MOL         0.1642
     20 H2         -1.5313    1.7756    0.8481 H         1 MOL         0.1581
     21 H3         -0.7764   -2.3634   -0.0989 H         1 MOL         0.1716
     22 H4         -4.1427   -5.5868    0.6102 H         1 MOL         0.1774
@<TRIPOS>BOND
     1    1    2 ar
     2    1    5 ar
     3    2    9 ar
     4    3    6 ar
     5    3    9 ar
     6    4    7 ar
     7    4   10 ar
     8    5    6 ar
     9    5   13 1
    10    6   14 1
    11    7    8 ar
    12    7   14 1
    13    8   11 ar
    14    8   13 1
    15    9   15 1
    16   10   12 ar
    17   10   16 1
    18   11   12 ar
    19   11   17 1
    20   12   18 1
    21    1   19 1
    22    2   20 1
    23    3   21 1
    24    4   22 1
