@<TRIPOS>MOLECULE
CUP08024_AM1BCC_v1_0
   40    40     0     0     0
SMALL
USER_CHARGES

@<TRIPOS>ATOM
      1 C1         -1.3333    0.3158   -5.9138 C.ar      1 MOL        -0.3659
      2 C2         -2.2635    0.1680   -6.9192 C.ar      1 MOL         0.4834
      3 C3         -1.7527   -0.0382   -4.6553 C.ar      1 MOL         0.6762
      4 C4         -3.8216   -0.6119   -5.4134 C.ar      1 MOL         0.7258
      5 C5         -1.9149    0.5232   -8.3326 C.3       1 MOL        -0.1579
      6 C6         -3.7947    1.9991   -0.2585 C.3       1 MOL        -0.1114
      7 C7          2.3055    0.8868   -0.9923 C.3       1 MOL        -0.1114
      8 C8         -5.9392   -0.2609   -4.1204 C.3       1 MOL        -0.0972
      9 C9         -5.1683   -2.5913   -4.6915 C.3       1 MOL        -0.0972
     10 C10        -2.9051    0.7829   -0.4160 C.3       1 MOL         0.1752
     11 C11         1.3017   -0.1322   -1.4918 C.3       1 MOL         0.1752
     12 C12        -5.2153   -1.1333   -5.1460 C.3       1 MOL        -0.0975
     13 N1         -3.5091   -0.2930   -6.6843 N.ar      1 MOL        -0.7153
     14 N2         -2.9748   -0.5010   -4.3758 N.ar      1 MOL        -0.8285
     15 O1         -0.8560    0.1030   -3.6305 O.3       1 MOL        -0.5359
     16 O2         -2.4180    0.7514   -1.7450 O.3       1 MOL        -0.5373
     17 O3         -0.0023    0.3941   -1.3105 O.3       1 MOL        -0.5373
     18 P1         -1.2379   -0.2966   -2.1126 P.3       1 MOL         1.2127
     19 S1         -1.5124   -2.1747   -1.6852 S.2       1 MOL        -0.5290
     20 H1         -0.3353    0.6881   -6.0981 H         1 MOL         0.1739
     21 H2         -1.0745   -0.0860   -8.6795 H         1 MOL         0.0642
     22 H3         -2.7636    0.3442   -9.0006 H         1 MOL         0.0642
     23 H4         -1.6446    1.5815   -8.4012 H         1 MOL         0.0642
     24 H5         -3.2357    2.9162   -0.4723 H         1 MOL         0.0503
     25 H6         -4.6281    1.9614   -0.9681 H         1 MOL         0.0503
     26 H7         -4.1974    2.0594    0.7565 H         1 MOL         0.0503
     27 H8          2.2063    1.8275   -1.5439 H         1 MOL         0.0503
     28 H9          2.1294    1.1166    0.0638 H         1 MOL         0.0503
     29 H10         3.3280    0.5164   -1.1071 H         1 MOL         0.0503
     30 H11        -5.4409   -0.2820   -3.1444 H         1 MOL         0.0486
     31 H12        -6.9689   -0.6058   -3.9780 H         1 MOL         0.0486
     32 H13        -5.9767    0.7829   -4.4516 H         1 MOL         0.0486
     33 H14        -4.6352   -2.7026   -3.7407 H         1 MOL         0.0486
     34 H15        -4.6589   -3.2169   -5.4331 H         1 MOL         0.0486
     35 H16        -6.1806   -2.9870   -4.5564 H         1 MOL         0.0486
     36 H17        -3.4819   -0.1254   -0.2191 H         1 MOL         0.0596
     37 H18        -2.0704    0.8355    0.2898 H         1 MOL         0.0596
     38 H19         1.3986   -1.0601   -0.9205 H         1 MOL         0.0596
     39 H20         1.4821   -0.3456   -2.5499 H         1 MOL         0.0596
     40 H21        -5.7840   -1.0902   -6.0838 H         1 MOL         0.0752
@<TRIPOS>BOND
     1    1    2 ar
     2    1    3 ar
     3    2    5 1
     4    2   13 ar
     5    3   14 ar
     6    3   15 1
     7    4   12 1
     8    4   13 ar
     9    4   14 ar
    10    6   10 1
    11    7   11 1
    12    8   12 1
    13    9   12 1
    14   10   16 1
    15   11   17 1
    16   15   18 1
    17   16   18 1
    18   17   18 1
    19   18   19 2
    20    1   20 1
    21    5   21 1
    22    5   22 1
    23    5   23 1
    24    6   24 1
    25    6   25 1
    26    6   26 1
    27    7   27 1
    28    7   28 1
    29    7   29 1
    30    8   30 1
    31    8   31 1
    32    8   32 1
    33    9   33 1
    34    9   34 1
    35    9   35 1
    36   10   36 1
    37   10   37 1
    38   11   38 1
    39   11   39 1
    40   12   40 1
