@<TRIPOS>MOLECULE
3_chloropyridine
   11    11     0     0     0
SMALL
USER_CHARGES

@<TRIPOS>ATOM
      1 C1          0.2061   -0.4420    0.9680 C.ar      1 MOL        -0.2374
      2 C2          1.3347   -0.0801    1.6952 C.ar      1 MOL        -0.0885
      3 C3         -0.6461   -1.3849    1.5199 C.ar      1 MOL         0.3937
      4 C4          0.6597   -1.5966    3.3985 C.ar      1 MOL         0.4038
      5 C5          1.5731   -0.6637    2.9345 C.ar      1 MOL        -0.1065
      6 N1         -0.4477   -1.9735    2.7207 N.ar      1 MOL        -0.6546
      7 Cl1         2.9544   -0.2428    3.8588 Cl        1 MOL        -0.0746
      8 H1         -0.0003   -0.0004   -0.0002 H         1 MOL         0.1485
      9 H2          2.0191    0.6575    1.2844 H         1 MOL         0.1525
     10 H3         -1.5407   -1.7009    0.9934 H         1 MOL         0.0269
     11 H4          0.7890   -2.0881    4.3582 H         1 MOL         0.0364
@<TRIPOS>BOND
     1    1    2 ar
     2    1    3 ar
     3    2    5 ar
     4    3    6 ar
     5    4    5 ar
     6    4    6 ar
     7    5    7 1
     8    1    8 1
     9    2    9 1
    10    3   10 1
    11    4   11 1
