@<TRIPOS>MOLECULE
ethylbenzene
   18    18     0     0     0
SMALL
USER_CHARGES

@<TRIPOS>ATOM
      1 C1          1.8846   -1.0376   -0.1090 C.ar      1 MOL        -0.1334
      2 C2          0.8176   -0.4410    0.5626 C.ar      1 MOL        -0.1282
      3 C3          2.9348   -1.6038    0.6137 C.ar      1 MOL        -0.1282
      4 C4          0.8008   -0.4105    1.9570 C.ar      1 MOL        -0.1278
      5 C5          2.9180   -1.5734    2.0082 C.ar      1 MOL        -0.1278
      6 C6          1.8509   -0.9767    2.6799 C.ar      1 MOL        -0.0676
      7 C7          2.5054    0.3063    4.7322 C.3       1 MOL        -0.0863
      8 C8          1.8328   -0.9437    4.1709 C.3       1 MOL        -0.0461
      9 H1          1.8979   -1.0612   -1.1948 H         1 MOL         0.1299
     10 H2          0.0002    0.0000   -0.0002 H         1 MOL         0.1297
     11 H3          3.7655   -2.0682    0.0906 H         1 MOL         0.1297
     12 H4         -0.0347    0.0567    2.4718 H         1 MOL         0.1303
     13 H5          3.7404   -2.0171    2.5631 H         1 MOL         0.1303
     14 H6          3.5541    0.3616    4.4208 H         1 MOL         0.0351
     15 H7          2.4764    0.3038    5.8263 H         1 MOL         0.0351
     16 H8          2.0026    1.2139    4.3816 H         1 MOL         0.0351
     17 H9          0.7970   -0.9932    4.5436 H         1 MOL         0.0451
     18 H10         2.3325   -1.8362    4.5808 H         1 MOL         0.0451
@<TRIPOS>BOND
     1    1    2 ar
     2    1    3 ar
     3    2    4 ar
     4    3    5 ar
     5    4    6 ar
     6    5    6 ar
     7    6    8 1
     8    7    8 1
     9    1    9 1
    10    2   10 1
    11    3   11 1
    12    4   12 1
    13    5   13 1
    14    7   14 1
    15    7   15 1
    16    7   16 1
    17    8   17 1
    18    8   18 1
