@<TRIPOS>MOLECULE
4_acetylpyridine
   16    16     0     0     0
SMALL
USER_CHARGES

@<TRIPOS>ATOM
      1 C1          0.1834   -0.3460    1.0107 C.ar      1 MOL        -0.2019
      2 C2          1.5263   -0.4068    3.0052 C.ar      1 MOL        -0.2019
      3 C3         -0.7036   -1.1995    1.6468 C.ar      1 MOL         0.3831
      4 C4          0.5791   -1.2576    3.5520 C.ar      1 MOL         0.3831
      5 C5          1.3172    0.0532    1.7098 C.ar      1 MOL        -0.1375
      6 C6          2.2804    0.9477    1.0886 C.2       1 MOL         0.5691
      7 C7          2.0548    1.4540   -0.3322 C.3       1 MOL        -0.1942
      8 N1         -0.5344   -1.6671    2.9040 N.ar      1 MOL        -0.6451
      9 O1          3.3055    1.3220    1.6928 O.2       1 MOL        -0.5212
     10 H1         -0.0088   -0.0059   -0.0015 H         1 MOL         0.1562
     11 H2          2.4007   -0.1147    3.5771 H         1 MOL         0.1562
     12 H3         -1.6027   -1.5409    1.1446 H         1 MOL         0.0274
     13 H4          0.6958   -1.6451    4.5588 H         1 MOL         0.0274
     14 H5          1.1333    2.0404   -0.3730 H         1 MOL         0.0665
     15 H6          2.0125    0.6084   -1.0236 H         1 MOL         0.0665
     16 H7          2.8818    2.1009   -0.6413 H         1 MOL         0.0665
@<TRIPOS>BOND
     1    1    3 ar
     2    1    5 ar
     3    2    4 ar
     4    2    5 ar
     5    3    8 ar
     6    4    8 ar
     7    5    6 1
     8    6    7 1
     9    6    9 2
    10    1   10 1
    11    2   11 1
    12    3   12 1
    13    4   13 1
    14    7   14 1
    15    7   15 1
    16    7   16 1
