@<TRIPOS>MOLECULE
n_butylacetamide
   21    20     0     0     0
SMALL
USER_CHARGES

@<TRIPOS>ATOM
      1 C1          5.0479    2.2071   -4.6743 C.2       1 MOL         0.6533
      2 C2          1.0825   -0.0254   -0.1893 C.3       1 MOL        -0.0902
      3 C3          4.6983    1.4241   -3.4225 C.3       1 MOL        -0.1489
      4 C4          1.4166    0.8021   -1.4202 C.3       1 MOL        -0.0768
      5 C5          3.2250    1.5213   -3.0298 C.3       1 MOL        -0.0721
      6 C6          2.8894    0.6630   -1.8063 C.3       1 MOL        -0.0782
      7 N1          6.3823    2.1006   -5.0035 N.am      1 MOL        -0.6816
      8 O1          4.2333    2.8454   -5.3345 O.2       1 MOL        -0.6078
      9 H1          1.2788   -1.0878   -0.3650 H         1 MOL         0.0330
     10 H2          0.0243    0.0866    0.0672 H         1 MOL         0.0330
     11 H3          1.6766    0.2961    0.6720 H         1 MOL         0.0330
     12 H4          4.9423    0.3737   -3.6242 H         1 MOL         0.0625
     13 H5          5.3358    1.7580   -2.5954 H         1 MOL         0.0625
     14 H6          1.1817    1.8541   -1.2207 H         1 MOL         0.0369
     15 H7          0.7809    0.4800   -2.2532 H         1 MOL         0.0369
     16 H8          2.9502    2.5658   -2.8390 H         1 MOL         0.0510
     17 H9          2.6173    1.1817   -3.8777 H         1 MOL         0.0510
     18 H10         3.1129   -0.3886   -2.0241 H         1 MOL         0.0425
     19 H11         3.5169    0.9557   -0.9566 H         1 MOL         0.0425
     20 H12         6.7221    2.5815   -5.8298 H         1 MOL         0.3088
     21 H13         7.0371    1.5583   -4.4490 H         1 MOL         0.3088
@<TRIPOS>BOND
     1    1    3 1
     2    1    7 am
     3    1    8 2
     4    2    4 1
     5    3    5 1
     6    4    6 1
     7    5    6 1
     8    2    9 1
     9    2   10 1
    10    2   11 1
    11    3   12 1
    12    3   13 1
    13    4   14 1
    14    4   15 1
    15    5   16 1
    16    5   17 1
    17    6   18 1
    18    6   19 1
    19    7   20 1
    20    7   21 1
