@<TRIPOS>MOLECULE
propanenitrile
    9     8     0     0     0
SMALL
USER_CHARGES

@<TRIPOS>ATOM
      1 C1          1.8887   -1.3256    2.5142 C.1       1 MOL         0.2152
      2 C2          0.5567   -0.7933    0.5092 C.3       1 MOL        -0.0909
      3 C3          1.1376   -0.2768    1.8144 C.3       1 MOL        -0.0288
      4 N1          2.4836   -2.1531    3.0688 N.1       1 MOL        -0.3745
      5 H1         -0.1277   -1.6306    0.6846 H         1 MOL         0.0456
      6 H2         -0.0000    0.0000    0.0000 H         1 MOL         0.0456
      7 H3          1.3468   -1.1415   -0.1649 H         1 MOL         0.0456
      8 H4          0.3272    0.0882    2.4548 H         1 MOL         0.0711
      9 H5          1.7952    0.5749    1.6085 H         1 MOL         0.0711
@<TRIPOS>BOND
     1    1    3 1
     2    1    4 3
     3    2    3 1
     4    2    5 1
     5    2    6 1
     6    2    7 1
     7    3    8 1
     8    3    9 1
