@<TRIPOS>MOLECULE
CUP08056_AM1BCC_v1_0
   39    39     0     0     0
SMALL
USER_CHARGES

@<TRIPOS>ATOM
      1 C1          4.5901   -2.1534   -1.9050 C.ar      1 MOL         0.0071
      2 C2          2.4151   -2.7092   -2.7586 C.ar      1 MOL         0.0071
      3 C3          3.6464   -3.1309   -2.2469 C.ar      1 MOL        -0.1906
      4 C4          4.2983   -0.7828   -2.0824 C.ar      1 MOL        -0.2103
      5 C5          2.1560   -1.3342   -2.9204 C.ar      1 MOL        -0.2103
      6 C6          3.0681   -0.3130   -2.5803 C.ar      1 MOL         0.3151
      7 C7          1.5315    2.3083    0.6767 C.3       1 MOL        -0.0908
      8 C8          2.8192    3.1291   -5.9426 C.3       1 MOL        -0.0908
      9 C9          1.6311    1.3763   -0.5210 C.3       1 MOL        -0.1093
     10 C10         2.2468    2.5045   -4.6801 C.3       1 MOL        -0.1093
     11 C11         2.6488    1.8885   -1.5429 C.3       1 MOL         0.2265
     12 C12         3.2972    1.6666   -3.9463 C.3       1 MOL         0.2265
     13 C13         3.9410   -4.5986   -2.0380 C.3       1 MOL         0.7049
     14 N1          2.6974    1.0316   -2.7499 N.pl3     1 MOL        -0.7301
     15 N2          5.3686    0.1301   -1.7417 N.pl3     1 MOL         0.3175
     16 N3          0.8615   -0.9856   -3.4701 N.pl3     1 MOL         0.3175
     17 O1          5.9918    0.6466   -2.6776 O.3       1 MOL        -0.1845
     18 O2          5.6084    0.2818   -0.5366 O.2       1 MOL        -0.1845
     19 O3         -0.0902   -0.9451   -2.6789 O.3       1 MOL        -0.1845
     20 O4          0.7971   -0.8430   -4.6988 O.2       1 MOL        -0.1845
     21 F1          5.2564   -4.8987   -2.2099 F         1 MOL        -0.2317
     22 F2          3.6169   -5.0104   -0.7844 F         1 MOL        -0.2317
     23 F3          3.2553   -5.4026   -2.8939 F         1 MOL        -0.2317
     24 H1          5.5601   -2.4551   -1.5047 H         1 MOL         0.1867
     25 H2          1.6554   -3.4424   -3.0335 H         1 MOL         0.1867
     26 H3          2.4959    2.3938    1.1875 H         1 MOL         0.0382
     27 H4          1.2145    3.3101    0.3696 H         1 MOL         0.0382
     28 H5          0.7991    1.9258    1.3944 H         1 MOL         0.0382
     29 H6          3.6607    3.7884   -5.7068 H         1 MOL         0.0382
     30 H7          3.1693    2.3592   -6.6374 H         1 MOL         0.0382
     31 H8          2.0542    3.7233   -6.4521 H         1 MOL         0.0382
     32 H9          0.6446    1.2885   -0.9906 H         1 MOL         0.0565
     33 H10         1.9085    0.3773   -0.1662 H         1 MOL         0.0565
     34 H11         1.3863    1.8802   -4.9452 H         1 MOL         0.0565
     35 H12         1.8679    3.3008   -4.0298 H         1 MOL         0.0565
     36 H13         2.3470    2.9001   -1.8397 H         1 MOL         0.0559
     37 H14         3.6369    1.9936   -1.0858 H         1 MOL         0.0559
     38 H15         3.6838    0.9083   -4.6404 H         1 MOL         0.0559
     39 H16         4.1427    2.3012   -3.6544 H         1 MOL         0.0559
@<TRIPOS>BOND
     1    1    3 ar
     2    1    4 ar
     3    2    3 ar
     4    2    5 ar
     5    3   13 1
     6    4    6 ar
     7    4   15 1
     8    5    6 ar
     9    5   16 1
    10    6   14 1
    11    7    9 1
    12    8   10 1
    13    9   11 1
    14   10   12 1
    15   11   14 1
    16   12   14 1
    17   13   21 1
    18   13   22 1
    19   13   23 1
    20   15   17 1
    21   15   18 2
    22   16   19 1
    23   16   20 2
    24    1   24 1
    25    2   25 1
    26    7   26 1
    27    7   27 1
    28    7   28 1
    29    8   29 1
    30    8   30 1
    31    8   31 1
    32    9   32 1
    33    9   33 1
    34   10   34 1
    35   10   35 1
    36   11   36 1
    37   11   37 1
    38   12   38 1
    39   12   39 1
