@<TRIPOS>MOLECULE
E_but_2_enal
   11    10     0     0     0
SMALL
USER_CHARGES

@<TRIPOS>ATOM
      1 C1         -1.2229   -1.5179   -0.8034 C.2       1 MOL        -0.2906
      2 C2         -0.9450   -0.2508   -0.4750 C.2       1 MOL        -0.0782
      3 C3         -0.2303   -2.5702   -0.5137 C.2       1 MOL         0.5622
      4 C4         -1.8802    0.8865   -0.7247 C.3       1 MOL        -0.0826
      5 O1         -0.4327   -3.7461   -0.7915 O.2       1 MOL        -0.5302
      6 H1         -2.1529   -1.8078   -1.2777 H         1 MOL         0.1394
      7 H2          0.0000    0.0000    0.0000 H         1 MOL         0.1261
      8 H3          0.7053   -2.2409   -0.0314 H         1 MOL        -0.0070
      9 H4         -1.4023    1.6261   -1.3746 H         1 MOL         0.0537
     10 H5         -2.1350    1.3735    0.2216 H         1 MOL         0.0537
     11 H6         -2.8101    0.5621   -1.2028 H         1 MOL         0.0537
@<TRIPOS>BOND
     1    1    2 2
     2    1    3 1
     3    2    4 1
     4    3    5 2
     5    1    6 1
     6    2    7 1
     7    3    8 1
     8    4    9 1
     9    4   10 1
    10    4   11 1
