@<TRIPOS>MOLECULE
2_methylbut_2_ene
   15    14     0     0     0
SMALL
USER_CHARGES

@<TRIPOS>ATOM
      1 C1          1.9771    0.8548    0.3324 C.2       1 MOL        -0.1743
      2 C2          2.5864   -0.1480    0.9925 C.2       1 MOL        -0.1221
      3 C3          0.5798    0.9034   -0.1954 C.3       1 MOL        -0.0562
      4 C4          4.0017   -0.1277    1.4967 C.3       1 MOL        -0.0554
      5 C5          1.8453   -1.4265    1.2843 C.3       1 MOL        -0.0554
      6 H1          2.5484    1.7628    0.1428 H         1 MOL         0.1148
      7 H2          0.0000   -0.0000    0.0000 H         1 MOL         0.0387
      8 H3          0.0465    1.7456    0.2568 H         1 MOL         0.0387
      9 H4          0.6021    1.0587   -1.2788 H         1 MOL         0.0387
     10 H5          4.5303    0.8036    1.2862 H         1 MOL         0.0387
     11 H6          4.0150   -0.2708    2.5824 H         1 MOL         0.0387
     12 H7          4.5754   -0.9392    1.0364 H         1 MOL         0.0387
     13 H8          2.3567   -2.2756    0.8189 H         1 MOL         0.0387
     14 H9          1.7974   -1.5986    2.3647 H         1 MOL         0.0387
     15 H10         0.8179   -1.4102    0.9055 H         1 MOL         0.0387
@<TRIPOS>BOND
     1    1    2 2
     2    1    3 1
     3    2    4 1
     4    2    5 1
     5    1    6 1
     6    3    7 1
     7    3    8 1
     8    3    9 1
     9    4   10 1
    10    4   11 1
    11    4   12 1
    12    5   13 1
    13    5   14 1
    14    5   15 1
