@<TRIPOS>MOLECULE
methyl_cyclohexanecarboxylate
   24    24     0     0     0
SMALL
USER_CHARGES

@<TRIPOS>ATOM
      1 C1          0.7296   -0.4754   -0.6707 C.2       1 MOL         0.6296
      2 C2          2.9486   -3.1872   -2.0644 C.3       1 MOL        -0.0769
      3 C3          2.3702   -2.0527   -2.9021 C.3       1 MOL        -0.0754
      4 C4          2.5978   -3.0262   -0.5898 C.3       1 MOL        -0.0754
      5 C5          0.8603   -1.9147   -2.7094 C.3       1 MOL        -0.0704
      6 C6          1.0887   -2.9170   -0.3777 C.3       1 MOL        -0.0704
      7 C7          0.4389   -1.8334   -1.2408 C.3       1 MOL        -0.1014
      8 C8          0.5061    0.8279    1.2877 C.3       1 MOL         0.1288
      9 O1          1.2787    0.4250   -1.2911 O.2       1 MOL        -0.5398
     10 O2          0.2905   -0.4188    0.6189 O.3       1 MOL        -0.4427
     11 H1          2.5631   -4.1466   -2.4306 H         1 MOL         0.0410
     12 H2          4.0378   -3.2144   -2.1834 H         1 MOL         0.0410
     13 H3          2.8614   -1.1112   -2.6276 H         1 MOL         0.0435
     14 H4          2.5902   -2.2277   -3.9616 H         1 MOL         0.0435
     15 H5          2.9858   -3.8810   -0.0242 H         1 MOL         0.0435
     16 H6          3.0923   -2.1319   -0.1916 H         1 MOL         0.0435
     17 H7          0.5076   -1.0324   -3.2573 H         1 MOL         0.0527
     18 H8          0.3714   -2.7850   -3.1653 H         1 MOL         0.0527
     19 H9          0.6301   -3.8838   -0.6221 H         1 MOL         0.0527
     20 H10         0.8879   -2.7323    0.6847 H         1 MOL         0.0527
     21 H11        -0.6511   -1.9417   -1.1811 H         1 MOL         0.0798
     22 H12         1.4170    1.2947    0.9052 H         1 MOL         0.0490
     23 H13         0.5966    0.6546    2.3630 H         1 MOL         0.0490
     24 H14        -0.3453    1.4855    1.0970 H         1 MOL         0.0490
@<TRIPOS>BOND
     1    1    7 1
     2    1    9 2
     3    1   10 1
     4    2    3 1
     5    2    4 1
     6    3    5 1
     7    4    6 1
     8    5    7 1
     9    6    7 1
    10    8   10 1
    11    2   11 1
    12    2   12 1
    13    3   13 1
    14    3   14 1
    15    4   15 1
    16    4   16 1
    17    5   17 1
    18    5   18 1
    19    6   19 1
    20    6   20 1
    21    7   21 1
    22    8   22 1
    23    8   23 1
    24    8   24 1
