@<TRIPOS>MOLECULE
CUP08031_AM1BCC_v1_0
   41    40     0     0     0
SMALL
USER_CHARGES

@<TRIPOS>ATOM
      1 C1          1.1669    0.3570    1.5408 C.3       1 MOL        -0.1129
      2 C2          5.3353   -2.5703   -3.2055 C.3       1 MOL        -0.1129
      3 C3         -1.1850   -2.5904   -9.0761 C.3       1 MOL        -0.1129
      4 C4         -6.0993   -0.8068   -5.9278 C.3       1 MOL        -0.1129
      5 C5          0.8852   -0.8642    0.6893 C.3       1 MOL         0.1479
      6 C6          3.9838   -3.0688   -2.7373 C.3       1 MOL         0.1479
      7 C7         -1.3299   -3.0333   -7.6347 C.3       1 MOL         0.1479
      8 C8         -5.0644   -1.9088   -5.8319 C.3       1 MOL         0.1479
      9 C9         -0.1418   -1.7589   -3.5324 C.3       1 MOL         0.3199
     10 O1          2.0697   -1.2066   -0.0131 O.3       1 MOL        -0.4849
     11 O2          3.5538   -2.2556   -1.6569 O.3       1 MOL        -0.4849
     12 O3         -2.4080   -2.3191   -7.0513 O.3       1 MOL        -0.4849
     13 O4         -3.8761   -1.3637   -5.2826 O.3       1 MOL        -0.4849
     14 P1          1.9598   -2.1012   -1.3671 P.3       1 MOL         0.8457
     15 P2         -2.4749   -2.1762   -5.4332 P.3       1 MOL         0.8457
     16 S1          1.0822   -3.8169   -1.0682 S.2       1 MOL        -0.4161
     17 S2         -2.5906   -3.8942   -4.5221 S.2       1 MOL        -0.4161
     18 S3          1.2357   -0.8085   -2.8613 S.3       1 MOL        -0.4236
     19 S4         -0.9590   -0.8386   -4.8507 S.3       1 MOL        -0.4236
     20 H1          1.9855    0.1588    2.2407 H         1 MOL         0.0558
     21 H2          1.4797    1.1998    0.9156 H         1 MOL         0.0558
     22 H3          0.2796    0.6496    2.1090 H         1 MOL         0.0558
     23 H4          5.2663   -1.5293   -3.5370 H         1 MOL         0.0558
     24 H5          6.0621   -2.5964   -2.3869 H         1 MOL         0.0558
     25 H6          5.7116   -3.1796   -4.0319 H         1 MOL         0.0558
     26 H7         -2.1118   -2.7709   -9.6306 H         1 MOL         0.0558
     27 H8         -0.9860   -1.5148   -9.1301 H         1 MOL         0.0558
     28 H9         -0.3685   -3.1257   -9.5689 H         1 MOL         0.0558
     29 H10        -6.2976   -0.3766   -4.9405 H         1 MOL         0.0558
     30 H11        -5.7362    0.0078   -6.5627 H         1 MOL         0.0558
     31 H12        -7.0372   -1.1867   -6.3425 H         1 MOL         0.0558
     32 H13         0.0715   -0.6511   -0.0106 H         1 MOL         0.0759
     33 H14         0.5935   -1.7036    1.3274 H         1 MOL         0.0759
     34 H15         4.0662   -4.1033   -2.3909 H         1 MOL         0.0759
     35 H16         3.2662   -3.0282   -3.5624 H         1 MOL         0.0759
     36 H17        -0.4005   -2.8412   -7.0903 H         1 MOL         0.0759
     37 H18        -1.5484   -4.1046   -7.5939 H         1 MOL         0.0759
     38 H19        -4.8731   -2.3277   -6.8239 H         1 MOL         0.0759
     39 H20        -5.4282   -2.7051   -5.1752 H         1 MOL         0.0759
     40 H21        -0.8627   -1.9704   -2.7387 H         1 MOL         0.0957
     41 H22         0.2330   -2.7051   -3.9282 H         1 MOL         0.0957
@<TRIPOS>BOND
     1    1    5 1
     2    2    6 1
     3    3    7 1
     4    4    8 1
     5    5   10 1
     6    6   11 1
     7    7   12 1
     8    8   13 1
     9    9   18 1
    10    9   19 1
    11   10   14 1
    12   11   14 1
    13   12   15 1
    14   13   15 1
    15   14   16 2
    16   14   18 1
    17   15   17 2
    18   15   19 1
    19    1   20 1
    20    1   21 1
    21    1   22 1
    22    2   23 1
    23    2   24 1
    24    2   25 1
    25    3   26 1
    26    3   27 1
    27    3   28 1
    28    4   29 1
    29    4   30 1
    30    4   31 1
    31    5   32 1
    32    5   33 1
    33    6   34 1
    34    6   35 1
    35    7   36 1
    36    7   37 1
    37    8   38 1
    38    8   39 1
    39    9   40 1
    40    9   41 1
