@<TRIPOS>MOLECULE
pentan_2_one
   16    15     0     0     0
SMALL
USER_CHARGES

@<TRIPOS>ATOM
      1 C1          0.3030    1.1397   -1.7827 C.2       1 MOL         0.5598
      2 C2          0.3779    1.0134   -0.2831 C.3       1 MOL        -0.1996
      3 C3          1.9176   -0.5868   -4.8565 C.3       1 MOL        -0.0928
      4 C4          1.1477    0.1606   -2.5789 C.3       1 MOL        -0.1803
      5 C5          1.0381    0.3830   -4.0845 C.3       1 MOL        -0.0703
      6 O1         -0.4074    1.9930   -2.3121 O.2       1 MOL        -0.5287
      7 H1          1.4064    1.1777    0.0477 H         1 MOL         0.0620
      8 H2          0.0391    0.0190    0.0182 H         1 MOL         0.0620
      9 H3         -0.2675    1.7628    0.1836 H         1 MOL         0.0620
     10 H4          1.6282   -1.6234   -4.6563 H         1 MOL         0.0361
     11 H5          2.9704   -0.4652   -4.5821 H         1 MOL         0.0361
     12 H6          1.8239   -0.4096   -5.9324 H         1 MOL         0.0361
     13 H7          0.8163   -0.8527   -2.3260 H         1 MOL         0.0629
     14 H8          2.1892    0.2774   -2.2591 H         1 MOL         0.0629
     15 H9         -0.0032    0.2616   -4.4060 H         1 MOL         0.0459
     16 H10         1.3283    1.4109   -4.3328 H         1 MOL         0.0459
@<TRIPOS>BOND
     1    1    2 1
     2    1    4 1
     3    1    6 2
     4    3    5 1
     5    4    5 1
     6    2    7 1
     7    2    8 1
     8    2    9 1
     9    3   10 1
    10    3   11 1
    11    3   12 1
    12    4   13 1
    13    4   14 1
    14    5   15 1
    15    5   16 1
