@<TRIPOS>MOLECULE
2,3,7,8-tetrachlorodibenzo-p-dioxin
   22    24     0     0     0
SMALL
USER_CHARGES

@<TRIPOS>ATOM
      1 C1         -3.1487    0.4152    1.2196 C.ar      1 MOL        -0.1064
      2 C2         -1.4367   -1.5819    0.2693 C.ar      1 MOL        -0.1061
      3 C3         -6.5287   -2.8214    1.9320 C.ar      1 MOL        -0.1058
      4 C4         -4.8168   -4.8184    0.9815 C.ar      1 MOL        -0.1055
      5 C5         -3.5799   -0.9097    1.1626 C.ar      1 MOL         0.0701
      6 C6         -2.7266   -1.9051    0.6889 C.ar      1 MOL         0.0717
      7 C7         -5.2389   -2.4982    1.5123 C.ar      1 MOL         0.0712
      8 C8         -4.3856   -3.4936    1.0385 C.ar      1 MOL         0.0701
      9 C9         -1.8584    0.7400    0.8000 C.ar      1 MOL         0.0189
     10 C10        -1.0039   -0.2568    0.3257 C.ar      1 MOL         0.0205
     11 C11        -6.9616   -4.1465    1.8755 C.ar      1 MOL         0.0196
     12 C12        -6.1071   -5.1433    1.4010 C.ar      1 MOL         0.0192
     13 O1         -4.8561   -1.1828    1.5855 O.3       1 MOL        -0.2126
     14 O2         -3.1093   -3.2205    0.6157 O.3       1 MOL        -0.2137
     15 Cl1        -1.3752    2.3976    0.8945 Cl        1 MOL        -0.0522
     16 Cl2         0.6047    0.0878   -0.2067 Cl        1 MOL        -0.0527
     17 Cl3        -8.5702   -4.4909    2.4077 Cl        1 MOL        -0.0529
     18 Cl4        -6.5903   -6.8009    1.3092 Cl        1 MOL        -0.0534
     19 H1         -3.8221    1.1837    1.5917 H         1 MOL         0.1746
     20 H2         -0.7789   -2.3666   -0.0973 H         1 MOL         0.1747
     21 H3         -7.1865   -2.0380    2.3011 H         1 MOL         0.1752
     22 H4         -4.1439   -5.5876    0.6099 H         1 MOL         0.1756
@<TRIPOS>BOND
     1    1    5 ar
     2    1    9 ar
     3    2    6 ar
     4    2   10 ar
     5    3    7 ar
     6    3   11 ar
     7    4    8 ar
     8    4   12 ar
     9    5    6 ar
    10    5   13 1
    11    6   14 1
    12    7    8 ar
    13    7   13 1
    14    8   14 1
    15    9   10 ar
    16    9   15 1
    17   10   16 1
    18   11   12 ar
    19   11   17 1
    20   12   18 1
    21    1   19 1
    22    2   20 1
    23    3   21 1
    24    4   22 1
