@<TRIPOS>MOLECULE
22_dimethylbutane
   20    19     0     0     0
SMALL
USER_CHARGES

@<TRIPOS>ATOM
      1 C1          0.5943    2.3290    0.6864 C.3       1 MOL        -0.0892
      2 C2          1.4191    4.1125   -1.6700 C.3       1 MOL        -0.0827
      3 C3          1.7283    2.0728   -3.0804 C.3       1 MOL        -0.0827
      4 C4          3.1401    2.4150   -1.0370 C.3       1 MOL        -0.0827
      5 C5          0.6586    1.9008   -0.7747 C.3       1 MOL        -0.0680
      6 C6          1.7374    2.6049   -1.6377 C.3       1 MOL        -0.0560
      7 H1          0.3638    3.3932    0.7862 H         1 MOL         0.0318
      8 H2         -0.1971    1.7726    1.1998 H         1 MOL         0.0318
      9 H3          1.5318    2.1225    1.2100 H         1 MOL         0.0318
     10 H4          1.4288    4.5406   -0.6612 H         1 MOL         0.0325
     11 H5          0.4299    4.2991   -2.1033 H         1 MOL         0.0325
     12 H6          2.1535    4.6614   -2.2705 H         1 MOL         0.0325
     13 H7          2.0360    1.0232   -3.1280 H         1 MOL         0.0325
     14 H8          0.7297    2.1521   -3.5243 H         1 MOL         0.0325
     15 H9          2.4191    2.6410   -3.7139 H         1 MOL         0.0325
     16 H10         3.1702    2.7441    0.0076 H         1 MOL         0.0325
     17 H11         3.8872    2.9962   -1.5898 H         1 MOL         0.0325
     18 H12         3.4575    1.3676   -1.0701 H         1 MOL         0.0325
     19 H13        -0.3298    2.0706   -1.2218 H         1 MOL         0.0367
     20 H14         0.8242    0.8158   -0.8034 H         1 MOL         0.0367
@<TRIPOS>BOND
     1    1    5 1
     2    2    6 1
     3    3    6 1
     4    4    6 1
     5    5    6 1
     6    1    7 1
     7    1    8 1
     8    1    9 1
     9    2   10 1
    10    2   11 1
    11    2   12 1
    12    3   13 1
    13    3   14 1
    14    3   15 1
    15    4   16 1
    16    4   17 1
    17    4   18 1
    18    5   19 1
    19    5   20 1
