@<TRIPOS>MOLECULE
fluorene
   23    25     0     0     0
SMALL
USER_CHARGES

@<TRIPOS>ATOM
      1 C1         -5.3217   -3.2599    2.6134 C.ar      1 MOL        -0.1328
      2 C2         -0.3097   -1.0173    0.2253 C.ar      1 MOL        -0.1328
      3 C3         -5.1927   -4.6579    2.6816 C.ar      1 MOL        -0.1258
      4 C4          0.5605   -2.0835   -0.0599 C.ar      1 MOL        -0.1258
      5 C5         -4.2939   -2.4675    2.0931 C.ar      1 MOL        -0.1038
      6 C6         -1.5665   -1.2472    0.7934 C.ar      1 MOL        -0.1038
      7 C7         -4.0333   -5.2918    2.2310 C.ar      1 MOL        -0.1183
      8 C8          0.1920   -3.4011    0.2179 C.ar      1 MOL        -0.1183
      9 C9         -3.1436   -3.0961    1.6462 C.ar      1 MOL        -0.0408
     10 C10        -1.9322   -2.5541    1.0692 C.ar      1 MOL        -0.0408
     11 C11        -3.0198   -4.5019    1.7175 C.ar      1 MOL        -0.0751
     12 C12        -1.0528   -3.6217    0.7806 C.ar      1 MOL        -0.0751
     13 C13        -1.6781   -4.9443    1.1721 C.3       1 MOL        -0.0118
     14 H1         -6.2342   -2.7894    2.9708 H         1 MOL         0.1312
     15 H2         -0.0000    0.0001   -0.0002 H         1 MOL         0.1312
     16 H3         -6.0064   -5.2511    3.0906 H         1 MOL         0.1308
     17 H4          1.5322   -1.8777   -0.5011 H         1 MOL         0.1308
     18 H5         -4.4083   -1.3898    2.0467 H         1 MOL         0.1349
     19 H6         -2.2271   -0.4135    1.0075 H         1 MOL         0.1349
     20 H7         -3.9348   -6.3702    2.2848 H         1 MOL         0.1338
     21 H8          0.8647   -4.2225   -0.0018 H         1 MOL         0.1338
     22 H9         -1.0871   -5.4370    1.9494 H         1 MOL         0.0719
     23 H10        -1.8093   -5.5849    0.2952 H         1 MOL         0.0719
@<TRIPOS>BOND
     1    1    3 ar
     2    1    5 ar
     3    2    4 ar
     4    2    6 ar
     5    3    7 ar
     6    4    8 ar
     7    5    9 ar
     8    6   10 ar
     9    7   11 ar
    10    8   12 ar
    11    9   10 1
    12    9   11 ar
    13   10   12 ar
    14   11   13 1
    15   12   13 1
    16    1   14 1
    17    2   15 1
    18    3   16 1
    19    4   17 1
    20    5   18 1
    21    6   19 1
    22    7   20 1
    23    8   21 1
    24   13   22 1
    25   13   23 1
