@<TRIPOS>MOLECULE
CUP08033_AM1BCC_v1_0
   22    24     0     0     0
SMALL
USER_CHARGES

@<TRIPOS>ATOM
      1 C1         -2.0697    0.3626    0.3540 C.2       1 MOL        -0.1530
      2 C2         -0.9601   -0.3854    0.3436 C.2       1 MOL        -0.1639
      3 C3         -2.7929    0.2820    3.2078 C.2       1 MOL        -0.0260
      4 C4         -2.2613   -0.9102    3.5025 C.2       1 MOL        -0.0457
      5 C5         -3.2561   -0.4024    0.8512 C.3       1 MOL        -0.0430
      6 C6         -1.1766   -1.7883    0.8185 C.3       1 MOL         0.0828
      7 C7         -2.6655   -1.8179    1.1941 C.3       1 MOL        -0.0788
      8 C8         -3.9074    0.0430    2.2068 C.3       1 MOL         0.0851
      9 C9         -3.0229   -1.9560    2.7090 C.3       1 MOL         0.0838
     10 C10        -4.4514   -1.3125    2.7592 C.3       1 MOL         0.1345
     11 Cl1        -2.2973    1.8064    3.7520 Cl        1 MOL        -0.0029
     12 Cl2        -0.9454   -1.2383    4.5162 Cl        1 MOL        -0.0064
     13 Cl3        -0.8366   -2.9003   -0.5286 Cl        1 MOL        -0.1694
     14 Cl4        -5.0886    1.3286    2.0288 Cl        1 MOL        -0.0752
     15 Cl5        -2.9089   -3.6064    3.2963 Cl        1 MOL        -0.0712
     16 Cl6        -5.1814   -1.2199    4.4097 Cl        1 MOL        -0.0906
     17 Cl7        -5.6825   -2.1086    1.7154 Cl        1 MOL        -0.0906
     18 H1         -2.1125    1.3974    0.0341 H         1 MOL         0.1595
     19 H2          0.0080   -0.0259    0.0152 H         1 MOL         0.1608
     20 H3         -3.9986   -0.4865    0.0481 H         1 MOL         0.1023
     21 H4         -0.5092   -2.0540    1.6405 H         1 MOL         0.0974
     22 H5         -3.1991   -2.5859    0.6182 H         1 MOL         0.1106
@<TRIPOS>BOND
     1    1    2 2
     2    1    5 1
     3    2    6 1
     4    3    4 2
     5    3    8 1
     6    3   11 1
     7    4    9 1
     8    4   12 1
     9    5    7 1
    10    5    8 1
    11    6    7 1
    12    6   13 1
    13    7    9 1
    14    8   10 1
    15    8   14 1
    16    9   10 1
    17    9   15 1
    18   10   16 1
    19   10   17 1
    20    1   18 1
    21    2   19 1
    22    5   20 1
    23    6   21 1
    24    7   22 1
