@<TRIPOS>MOLECULE
methyl_methanesulfonate
   12    11     0     0     0
SMALL
USER_CHARGES

@<TRIPOS>ATOM
      1 C1          0.8892   -0.5207    0.3643 C.3       1 MOL         0.1656
      2 C2          4.3140    1.3852    0.5949 C.3       1 MOL        -0.3919
      3 O1          3.9557   -1.1138   -0.0960 O.2       1 MOL        -0.6587
      4 O2          3.4013   -0.4040    2.2732 O.2       1 MOL        -0.6587
      5 O3          1.9819    0.3849    0.3487 O.3       1 MOL        -0.5697
      6 S1          3.4454   -0.1414    0.8490 S.o2      1 MOL         1.5934
      7 H1          1.2600   -1.5378    0.5130 H         1 MOL         0.0472
      8 H2          0.3461   -0.4541   -0.5817 H         1 MOL         0.0472
      9 H3          0.2196   -0.2557    1.1860 H         1 MOL         0.0472
     10 H4          4.9254    1.5845    1.4764 H         1 MOL         0.1262
     11 H5          4.9427    1.2804   -0.2907 H         1 MOL         0.1262
     12 H6          3.5798    2.1793    0.4511 H         1 MOL         0.1262
@<TRIPOS>BOND
     1    1    5 1
     2    2    6 1
     3    3    6 2
     4    4    6 2
     5    5    6 1
     6    1    7 1
     7    1    8 1
     8    1    9 1
     9    2   10 1
    10    2   11 1
    11    2   12 1
