@<TRIPOS>MOLECULE
methyl_hexanoate
   23    22     0     0     0
SMALL
USER_CHARGES

@<TRIPOS>ATOM
      1 C1          1.5898    0.9607    6.3332 C.2       1 MOL         0.6283
      2 C2          0.0860    1.1284    0.1342 C.3       1 MOL        -0.0905
      3 C3          2.6053    0.7410    8.4590 C.3       1 MOL         0.1281
      4 C4          1.7849    0.6046    4.8759 C.3       1 MOL        -0.1246
      5 C5         -0.1408    1.4632    1.5999 C.3       1 MOL        -0.0768
      6 C6          0.7154    1.2021    3.9617 C.3       1 MOL        -0.0756
      7 C7          0.9236    0.8238    2.4919 C.3       1 MOL        -0.0785
      8 O1          0.6594    1.6175    6.7799 O.2       1 MOL        -0.5385
      9 O2          2.6334    0.4569    7.0565 O.3       1 MOL        -0.4436
     10 H1          1.0606    1.4935   -0.2053 H         1 MOL         0.0331
     11 H2          0.0470    0.0471   -0.0319 H         1 MOL         0.0331
     12 H3         -0.6864    1.5950   -0.4849 H         1 MOL         0.0331
     13 H4          3.2411    0.0274    8.9889 H         1 MOL         0.0494
     14 H5          1.5779    0.6717    8.8252 H         1 MOL         0.0494
     15 H6          2.9815    1.7533    8.6242 H         1 MOL         0.0494
     16 H7          1.7927   -0.4862    4.7709 H         1 MOL         0.0767
     17 H8          2.7670    0.9894    4.5782 H         1 MOL         0.0767
     18 H9         -1.1358    1.1133    1.8985 H         1 MOL         0.0386
     19 H10        -0.1279    2.5520    1.7261 H         1 MOL         0.0386
     20 H11         0.7515    2.2945    4.0546 H         1 MOL         0.0542
     21 H12        -0.2825    0.8871    4.2894 H         1 MOL         0.0542
     22 H13         0.8892   -0.2654    2.3743 H         1 MOL         0.0426
     23 H14         1.9187    1.1513    2.1669 H         1 MOL         0.0426
@<TRIPOS>BOND
     1    1    4 1
     2    1    8 2
     3    1    9 1
     4    2    5 1
     5    3    9 1
     6    4    6 1
     7    5    7 1
     8    6    7 1
     9    2   10 1
    10    2   11 1
    11    2   12 1
    12    3   13 1
    13    3   14 1
    14    3   15 1
    15    4   16 1
    16    4   17 1
    17    5   18 1
    18    5   19 1
    19    6   20 1
    20    6   21 1
    21    7   22 1
    22    7   23 1
