@<TRIPOS>MOLECULE
22_dimethylpropane
   17    16     0     0     0
SMALL
USER_CHARGES

@<TRIPOS>ATOM
      1 C1         -0.6138   -0.1246    0.8990 C.3       1 MOL        -0.0820
      2 C2          1.1851    0.8592    2.3421 C.3       1 MOL        -0.0820
      3 C3          1.1078   -1.6156    1.9474 C.3       1 MOL        -0.0820
      4 C4         -0.6372   -0.5188    3.3750 C.3       1 MOL        -0.0820
      5 C5          0.2605   -0.3499    2.1409 C.3       1 MOL        -0.0601
      6 H1         -1.2320    0.7735    1.0077 H         1 MOL         0.0323
      7 H2          0.0000    0.0000    0.0000 H         1 MOL         0.0323
      8 H3         -1.2859   -0.9732    0.7288 H         1 MOL         0.0323
      9 H4          1.8230    0.7275    3.2233 H         1 MOL         0.0323
     10 H5          0.6080    1.7801    2.4830 H         1 MOL         0.0323
     11 H6          1.8397    1.0055    1.4756 H         1 MOL         0.0323
     12 H7          0.4743   -2.4976    1.8003 H         1 MOL         0.0323
     13 H8          1.7610   -1.5248    1.0723 H         1 MOL         0.0323
     14 H9          1.7435   -1.8036    2.8198 H         1 MOL         0.0323
     15 H10        -1.2562    0.3705    3.5391 H         1 MOL         0.0323
     16 H11        -0.0404   -0.6810    4.2795 H         1 MOL         0.0323
     17 H12        -1.3098   -1.3765    3.2610 H         1 MOL         0.0323
@<TRIPOS>BOND
     1    1    5 1
     2    2    5 1
     3    3    5 1
     4    4    5 1
     5    1    6 1
     6    1    7 1
     7    1    8 1
     8    2    9 1
     9    2   10 1
    10    2   11 1
    11    3   12 1
    12    3   13 1
    13    3   14 1
    14    4   15 1
    15    4   16 1
    16    4   17 1
