@<TRIPOS>MOLECULE
1_methylnaphthalene
   21    22     0     0     0
SMALL
USER_CHARGES

@<TRIPOS>ATOM
      1 C1         -0.5682   -2.0626    0.2276 C.ar      1 MOL        -0.1282
      2 C2          0.3420   -1.0307    0.0184 C.ar      1 MOL        -0.1286
      3 C3          3.0392   -5.3112   -0.1006 C.ar      1 MOL        -0.1238
      4 C4         -0.1295   -3.3868    0.2509 C.ar      1 MOL        -0.1180
      5 C5          1.6942   -1.3191   -0.1681 C.ar      1 MOL        -0.1187
      6 C6          1.6869   -5.0226    0.0857 C.ar      1 MOL        -0.1224
      7 C7          3.9495   -4.2793   -0.3094 C.ar      1 MOL        -0.1307
      8 C8          1.2279   -3.6954    0.0653 C.ar      1 MOL        -0.0346
      9 C9          2.1534   -2.6461   -0.1474 C.ar      1 MOL        -0.0326
     10 C10         3.5108   -2.9550   -0.3332 C.ar      1 MOL        -0.0541
     11 C11         4.5424   -1.8938   -0.5630 C.3       1 MOL        -0.0625
     12 H1         -1.6210   -1.8375    0.3714 H         1 MOL         0.1316
     13 H2         -0.0010   -0.0004   -0.0001 H         1 MOL         0.1311
     14 H3          3.3815   -6.3418   -0.0815 H         1 MOL         0.1314
     15 H4         -0.8587   -4.1774    0.4165 H         1 MOL         0.1317
     16 H5          2.3743   -0.4857   -0.3288 H         1 MOL         0.1325
     17 H6          0.9934   -5.8453    0.2481 H         1 MOL         0.1318
     18 H7          5.0007   -4.5162   -0.4523 H         1 MOL         0.1311
     19 H8          5.2388   -1.8580    0.2809 H         1 MOL         0.0443
     20 H9          5.1087   -2.0894   -1.4801 H         1 MOL         0.0443
     21 H10         4.0741   -0.9099   -0.6765 H         1 MOL         0.0443
@<TRIPOS>BOND
     1    1    2 ar
     2    1    4 ar
     3    2    5 ar
     4    3    6 ar
     5    3    7 ar
     6    4    8 ar
     7    5    9 ar
     8    6    8 ar
     9    7   10 ar
    10    8    9 ar
    11    9   10 ar
    12   10   11 1
    13    1   12 1
    14    2   13 1
    15    3   14 1
    16    4   15 1
    17    5   16 1
    18    6   17 1
    19    7   18 1
    20   11   19 1
    21   11   20 1
    22   11   21 1
