@<TRIPOS>MOLECULE
CUP08026_AM1BCC_v1_0
   13    13     0     0     0
SMALL
USER_CHARGES

@<TRIPOS>ATOM
      1 C1          1.7552   -1.1002    4.1261 C.1       1 MOL         0.2296
      2 C2          1.8856   -1.0363   -0.1195 C.ar      1 MOL        -0.0921
      3 C3          0.8099   -0.4644    0.5562 C.ar      1 MOL        -0.1316
      4 C4          2.9184   -1.6290    0.6031 C.ar      1 MOL        -0.1316
      5 C5          1.7993   -1.0785    2.6937 C.ar      1 MOL        -0.0040
      6 C6          0.7660   -0.4845    1.9553 C.ar      1 MOL         0.0549
      7 C7          2.8765   -1.6510    2.0023 C.ar      1 MOL         0.0549
      8 N1          1.7191   -1.1168    5.2863 N.1       1 MOL        -0.3308
      9 Cl1        -0.6053    0.2469    2.7154 Cl        1 MOL        -0.0570
     10 Cl2         4.1987   -2.4078    2.8221 Cl        1 MOL        -0.0570
     11 H1          1.9190   -1.0202   -1.2069 H         1 MOL         0.1489
     12 H2          0.0051   -0.0026   -0.0129 H         1 MOL         0.1579
     13 H3          3.7570   -2.0739    0.0705 H         1 MOL         0.1579
@<TRIPOS>BOND
     1    1    5 1
     2    1    8 3
     3    2    3 ar
     4    2    4 ar
     5    3    6 ar
     6    4    7 ar
     7    5    6 ar
     8    5    7 ar
     9    6    9 1
    10    7   10 1
    11    2   11 1
    12    3   12 1
    13    4   13 1
