@<TRIPOS>MOLECULE
N_methylmorpholine
   18    18     0     0     0
SMALL
USER_CHARGES

@<TRIPOS>ATOM
      1 C1          0.3521    0.2583   -1.0073 C.3       1 MOL         0.1238
      2 C2         -1.2153   -1.2330   -2.0646 C.3       1 MOL         0.1238
      3 C3         -0.4555    1.4387   -1.5394 C.3       1 MOL         0.1103
      4 C4         -1.9854   -0.0174   -2.5727 C.3       1 MOL         0.1103
      5 C5          0.9621   -2.0406   -1.4116 C.3       1 MOL         0.1474
      6 N1          0.2058   -0.8932   -1.9086 N.3       1 MOL        -0.7102
      7 O1         -1.8315    1.0804   -1.6724 O.3       1 MOL        -0.4172
      8 H1          1.4067    0.5486   -0.9351 H         1 MOL         0.0517
      9 H2          0.0018   -0.0034   -0.0003 H         1 MOL         0.0517
     10 H3         -1.6332   -1.5566   -1.1025 H         1 MOL         0.0517
     11 H4         -1.3306   -2.0560   -2.7792 H         1 MOL         0.0517
     12 H5         -0.3964    2.2771   -0.8376 H         1 MOL         0.0517
     13 H6         -0.0730    1.7872   -2.5064 H         1 MOL         0.0517
     14 H7         -1.6546    0.2813   -3.5748 H         1 MOL         0.0517
     15 H8         -3.0531   -0.2512   -2.6325 H         1 MOL         0.0517
     16 H9          0.8067   -2.1675   -0.3365 H         1 MOL         0.0328
     17 H10         2.0303   -1.8979   -1.5972 H         1 MOL         0.0328
     18 H11         0.6429   -2.9534   -1.9225 H         1 MOL         0.0328
@<TRIPOS>BOND
     1    1    3 1
     2    1    6 1
     3    2    4 1
     4    2    6 1
     5    3    7 1
     6    4    7 1
     7    5    6 1
     8    1    8 1
     9    1    9 1
    10    2   10 1
    11    2   11 1
    12    3   12 1
    13    3   13 1
    14    4   14 1
    15    4   15 1
    16    5   16 1
    17    5   17 1
    18    5   18 1
