@<TRIPOS>MOLECULE
acetylsalicylic
   21    21     0     0     0
SMALL
USER_CHARGES

@<TRIPOS>ATOM
      1 C1          1.8850   -1.0360   -0.1120 C.ar      1 MOL        -0.1542
      2 C2          0.8070   -0.4630    0.5610 C.ar      1 MOL        -0.0813
      3 C3          2.9210   -1.6310    0.6080 C.ar      1 MOL        -0.0576
      4 C4          0.7640   -0.4840    1.9550 C.ar      1 MOL        -0.1471
      5 C5          2.8780   -1.6520    2.0020 C.ar      1 MOL        -0.1469
      6 C6          1.8000   -1.0790    2.6760 C.ar      1 MOL         0.1799
      7 C7          3.9700   -2.2780    2.7350 C.2       1 MOL         0.6661
      8 C8          1.0950   -2.2150    4.5730 C.2       1 MOL         0.6650
      9 C9          1.0800   -2.1330    6.0700 C.3       1 MOL        -0.1476
     10 O1          4.3540   -1.9510    3.8610 O.2       1 MOL        -0.5644
     11 O2          0.6090   -3.1360    3.9290 O.2       1 MOL        -0.5174
     12 O3          4.5470   -3.2940    2.0380 O.3       1 MOL        -0.6053
     13 O4          1.7390   -1.0890    4.0370 O.3       1 MOL        -0.3814
     14 H1          1.9180   -1.0200   -1.1980 H         1 MOL         0.1424
     15 H2         -0.0000   -0.0000   -0.0000 H         1 MOL         0.1417
     16 H3          3.7560   -2.0740    0.0720 H         1 MOL         0.1583
     17 H4         -0.0800   -0.0360    2.4730 H         1 MOL         0.1540
     18 H5          1.9750   -2.6120    6.4770 H         1 MOL         0.0983
     19 H6          0.2000   -2.6580    6.4530 H         1 MOL         0.0749
     20 H7          1.0260   -1.0870    6.3830 H         1 MOL         0.0746
     21 H8          5.2840   -3.7230    2.5240 H         1 MOL         0.4482
@<TRIPOS>BOND
     1    1    2 ar
     2    1    3 ar
     3    2    4 ar
     4    3    5 ar
     5    4    6 ar
     6    5    6 ar
     7    5    7 1
     8    6   13 1
     9    7   10 2
    10    7   12 1
    11    8    9 1
    12    8   11 2
    13    8   13 1
    14    1   14 1
    15    2   15 1
    16    3   16 1
    17    4   17 1
    18    9   18 1
    19    9   19 1
    20    9   20 1
    21   12   21 1
