@<TRIPOS>MOLECULE
CUP08004_AM1BCC_v1_0
   17    16     0     0     0
SMALL
USER_CHARGES

@<TRIPOS>ATOM
      1 C1          0.9955   -0.0741   -0.2702 C.3       1 MOL        -0.0965
      2 C2          1.1102    0.9440   -4.0077 C.3       1 MOL        -0.1268
      3 C3          1.3769    0.6953   -1.5287 C.3       1 MOL        -0.0812
      4 C4          0.6335    0.1806   -2.7726 C.3       1 MOL         0.1495
      5 N1         -1.6141   -0.4535   -3.2795 N.pl3     1 MOL         0.3786
      6 O1         -2.8043   -0.2330   -3.0633 O.3       1 MOL        -0.1896
      7 O2         -1.0894   -1.2996   -4.0041 O.2       1 MOL        -0.1896
      8 O3         -0.7602    0.4270   -2.5720 O.3       1 MOL        -0.3527
      9 H1         -0.0688    0.0375   -0.0410 H         1 MOL         0.0421
     10 H2          1.5647    0.2999    0.5868 H         1 MOL         0.0421
     11 H3          1.2138   -1.1408   -0.3827 H         1 MOL         0.0421
     12 H4          0.8899    2.0134   -3.9152 H         1 MOL         0.0575
     13 H5          2.1871    0.8198   -4.1585 H         1 MOL         0.0575
     14 H6          0.5963    0.5964   -4.9095 H         1 MOL         0.0575
     15 H7          2.4595    0.6128   -1.6804 H         1 MOL         0.0635
     16 H8          1.1444    1.7549   -1.3654 H         1 MOL         0.0635
     17 H9          0.8597   -0.8885   -2.8731 H         1 MOL         0.0826
@<TRIPOS>BOND
     1    1    3 1
     2    2    4 1
     3    3    4 1
     4    4    8 1
     5    5    6 1
     6    5    7 2
     7    5    8 1
     8    1    9 1
     9    1   10 1
    10    1   11 1
    11    2   12 1
    12    2   13 1
    13    2   14 1
    14    3   15 1
    15    3   16 1
    16    4   17 1
