@<TRIPOS>MOLECULE
4_methylacetophenone
   20    20     0     0     0
SMALL
USER_CHARGES

@<TRIPOS>ATOM
      1 C1          0.8178   -0.4385    0.5644 C.ar      1 MOL        -0.0777
      2 C2          2.9371   -1.5972    0.6197 C.ar      1 MOL        -0.0777
      3 C3          0.7994   -0.4058    1.9588 C.ar      1 MOL        -0.1479
      4 C4          2.9185   -1.5646    2.0141 C.ar      1 MOL        -0.1479
      5 C5          1.8867   -1.0341   -0.1051 C.ar      1 MOL        -0.1827
      6 C6          1.8497   -0.9689    2.6836 C.ar      1 MOL        -0.0360
      7 C7          1.9055   -1.0700   -1.5589 C.2       1 MOL         0.5733
      8 C8          1.8299   -0.9327    4.1745 C.3       1 MOL        -0.0673
      9 C9          0.7598   -0.4582   -2.3578 C.3       1 MOL        -0.1936
     10 O1          2.8478   -1.5952   -2.1848 O.2       1 MOL        -0.5367
     11 H1         -0.0059    0.0032    0.0092 H         1 MOL         0.1446
     12 H2          3.7746   -2.0647    0.1081 H         1 MOL         0.1446
     13 H3         -0.0372    0.0603    2.4723 H         1 MOL         0.1363
     14 H4          3.7415   -2.0051    2.5705 H         1 MOL         0.1363
     15 H5          2.7333   -0.4417    4.5566 H         1 MOL         0.0478
     16 H6          0.9533   -0.3880    4.5482 H         1 MOL         0.0478
     17 H7          1.7788   -1.9448    4.5969 H         1 MOL         0.0478
     18 H8          0.6979    0.6136   -2.1527 H         1 MOL         0.0631
     19 H9         -0.1772   -0.9609   -2.1046 H         1 MOL         0.0631
     20 H10         0.9327   -0.5882   -3.4307 H         1 MOL         0.0631
@<TRIPOS>BOND
     1    1    3 ar
     2    1    5 ar
     3    2    4 ar
     4    2    5 ar
     5    3    6 ar
     6    4    6 ar
     7    5    7 1
     8    6    8 1
     9    7    9 1
    10    7   10 2
    11    1   11 1
    12    2   12 1
    13    3   13 1
    14    4   14 1
    15    8   15 1
    16    8   16 1
    17    8   17 1
    18    9   18 1
    19    9   19 1
    20    9   20 1
