@<TRIPOS>MOLECULE
methylcyclopentane
   18    18     0     0     0
SMALL
USER_CHARGES

@<TRIPOS>ATOM
      1 C1         -0.3396    0.4881   -0.9209 C.3       1 MOL        -0.0793
      2 C2         -1.6799   -0.1059   -1.3575 C.3       1 MOL        -0.0793
      3 C3          0.6372    0.2135   -2.0602 C.3       1 MOL        -0.0774
      4 C4         -1.4494   -0.6928   -2.7462 C.3       1 MOL        -0.0774
      5 C5          0.0448   -0.9981   -2.7731 C.3       1 MOL        -0.0710
      6 C6          0.5910   -1.1933   -4.1767 C.3       1 MOL        -0.0822
      7 H1         -0.4173    1.5605   -0.7144 H         1 MOL         0.0389
      8 H2          0.0002    0.0002   -0.0003 H         1 MOL         0.0389
      9 H3         -1.9821   -0.8935   -0.6572 H         1 MOL         0.0389
     10 H4         -2.4754    0.6460   -1.3691 H         1 MOL         0.0389
     11 H5          0.6757    1.0791   -2.7333 H         1 MOL         0.0411
     12 H6          1.6517    0.0276   -1.6945 H         1 MOL         0.0411
     13 H7         -2.0609   -1.5831   -2.9226 H         1 MOL         0.0411
     14 H8         -1.7074    0.0501   -3.5110 H         1 MOL         0.0411
     15 H9          0.2448   -1.9030   -2.1857 H         1 MOL         0.0486
     16 H10        -0.0613   -1.8550   -4.7543 H         1 MOL         0.0326
     17 H11         0.6592   -0.2346   -4.6994 H         1 MOL         0.0326
     18 H12         1.5897   -1.6387   -4.1419 H         1 MOL         0.0326
@<TRIPOS>BOND
     1    1    2 1
     2    1    3 1
     3    2    4 1
     4    3    5 1
     5    4    5 1
     6    5    6 1
     7    1    7 1
     8    1    8 1
     9    2    9 1
    10    2   10 1
    11    3   11 1
    12    3   12 1
    13    4   13 1
    14    4   14 1
    15    5   15 1
    16    6   16 1
    17    6   17 1
    18    6   18 1
