@<TRIPOS>MOLECULE
ethyl_formate
   11    10     0     0     0
SMALL
USER_CHARGES

@<TRIPOS>ATOM
      1 C1          2.1979    2.3853   -2.2392 C.2       1 MOL         0.6249
      2 C2          1.0616   -0.2681   -0.0006 C.3       1 MOL        -0.1147
      3 C3          1.9101    0.9126   -0.4220 C.3       1 MOL         0.1347
      4 O1          3.1000    3.0130   -1.7072 O.2       1 MOL        -0.5135
      5 O2          1.5170    1.3236   -1.7228 O.3       1 MOL        -0.4406
      6 H1          1.8053    2.6060   -3.2438 H         1 MOL         0.0570
      7 H2          1.3397   -0.6112    0.9998 H         1 MOL         0.0490
      8 H3          0.0000    0.0000    0.0000 H         1 MOL         0.0490
      9 H4          1.1797   -1.0988   -0.7043 H         1 MOL         0.0490
     10 H5          2.9684    0.6361   -0.4446 H         1 MOL         0.0526
     11 H6          1.7730    1.7499    0.2687 H         1 MOL         0.0526
@<TRIPOS>BOND
     1    1    4 2
     2    1    5 1
     3    2    3 1
     4    3    5 1
     5    1    6 1
     6    2    7 1
     7    2    8 1
     8    2    9 1
     9    3   10 1
    10    3   11 1
