@<TRIPOS>MOLECULE
phenyl_trifluoroethyl_ether
   19    19     0     0     0
SMALL
USER_CHARGES

@<TRIPOS>ATOM
      1 C1          1.8846   -1.0376   -0.1090 C.ar      1 MOL        -0.1507
      2 C2          0.8176   -0.4410    0.5626 C.ar      1 MOL        -0.1012
      3 C3          2.9348   -1.6038    0.6137 C.ar      1 MOL        -0.1012
      4 C4          0.8008   -0.4105    1.9570 C.ar      1 MOL        -0.1615
      5 C5          2.9180   -1.5734    2.0082 C.ar      1 MOL        -0.1615
      6 C6          1.8509   -0.9767    2.6799 C.ar      1 MOL         0.1151
      7 C7          0.5632   -0.9606    4.6914 C.3       1 MOL         0.3355
      8 C8          0.7112   -1.6108    6.0473 C.3       1 MOL         0.3799
      9 O1          1.8342   -0.9476    4.0403 O.3       1 MOL        -0.3491
     10 F1          0.1561    0.3237    4.8785 F         1 MOL        -0.2215
     11 F2         -0.4787   -1.5897    6.6950 F         1 MOL        -0.2316
     12 F3          1.5838   -0.8971    6.8021 F         1 MOL        -0.2316
     13 H1          1.8990   -1.0598   -1.1948 H         1 MOL         0.1361
     14 H2         -0.0004   -0.0007   -0.0000 H         1 MOL         0.1368
     15 H3          3.7656   -2.0682    0.0905 H         1 MOL         0.1368
     16 H4         -0.0336    0.0549    2.4746 H         1 MOL         0.1474
     17 H5          3.7386   -2.0165    2.5657 H         1 MOL         0.1474
     18 H6         -0.1895   -1.4984    4.1036 H         1 MOL         0.0928
     19 H7          1.0706   -2.6417    5.9841 H         1 MOL         0.0821
@<TRIPOS>BOND
     1    1    2 ar
     2    1    3 ar
     3    2    4 ar
     4    3    5 ar
     5    4    6 ar
     6    5    6 ar
     7    6    9 1
     8    7    8 1
     9    7    9 1
    10    7   10 1
    11    8   11 1
    12    8   12 1
    13    1   13 1
    14    2   14 1
    15    3   15 1
    16    4   16 1
    17    5   17 1
    18    7   18 1
    19    8   19 1
