@<TRIPOS>MOLECULE
ketoprofen
   33    34     0     0     0
SMALL
USER_CHARGES

@<TRIPOS>ATOM
      1 C1          3.4830   -4.9770    4.1200 C.ar      1 MOL        -0.0979
      2 C2          4.0750   -3.9480    3.3880 C.ar      1 MOL        -0.1474
      3 C3          2.3230   -4.7320    4.8550 C.ar      1 MOL        -0.1463
      4 C4         -1.8930   -0.6240    5.0130 C.ar      1 MOL        -0.1344
      5 C5          3.5070   -2.6740    3.3910 C.ar      1 MOL        -0.0719
      6 C6          1.7550   -3.4580    4.8580 C.ar      1 MOL        -0.0785
      7 C7         -0.7350   -0.9250    4.2960 C.ar      1 MOL        -0.0934
      8 C8         -1.8020   -0.1760    6.3300 C.ar      1 MOL        -0.1053
      9 C9          0.6070   -0.3300    6.2150 C.ar      1 MOL        -0.0844
     10 C10         2.3470   -2.4290    4.1260 C.ar      1 MOL        -0.1772
     11 C11         0.5150   -0.7780    4.8970 C.ar      1 MOL        -0.1510
     12 C12        -0.5520   -0.0290    6.9320 C.ar      1 MOL        -0.0967
     13 C13         1.7550   -1.1000    4.1290 C.2       1 MOL         0.5912
     14 C14         0.1690   -0.5940    9.2750 C.2       1 MOL         0.6380
     15 C15         0.3120    1.7800    8.4920 C.3       1 MOL        -0.0915
     16 C16        -0.4530    0.4500    8.3410 C.3       1 MOL        -0.0563
     17 O1          2.2770   -0.1820    3.4800 O.2       1 MOL        -0.5195
     18 O2          0.5700   -1.6930    8.9150 O.2       1 MOL        -0.5476
     19 O3          0.2300   -0.1820   10.5690 O.3       1 MOL        -0.6069
     20 H1          3.9250   -5.9680    4.1180 H         1 MOL         0.1344
     21 H2          4.9770   -4.1380    2.8140 H         1 MOL         0.1376
     22 H3          1.8630   -5.5330    5.4260 H         1 MOL         0.1367
     23 H4         -2.8670   -0.7390    4.5440 H         1 MOL         0.1387
     24 H5          3.9770   -1.8790    2.8160 H         1 MOL         0.1548
     25 H6          0.8520   -3.2790    5.4350 H         1 MOL         0.1434
     26 H7         -0.8190   -1.2720    3.2690 H         1 MOL         0.1431
     27 H8         -2.7090    0.0570    6.8810 H         1 MOL         0.1370
     28 H9          1.5800   -0.2150    6.6860 H         1 MOL         0.1600
     29 H10         1.3440    1.6950    8.1320 H         1 MOL         0.0591
     30 H11        -0.1830    2.5760    7.9260 H         1 MOL         0.0547
     31 H12         0.3690    2.1010    9.5380 H         1 MOL         0.0461
     32 H13        -1.4750    0.6310    8.7270 H         1 MOL         0.0875
     33 H14         0.6170   -0.8280   11.1980 H         1 MOL         0.4440
@<TRIPOS>BOND
     1    1    2 ar
     2    1    3 ar
     3    2    5 ar
     4    3    6 ar
     5    4    7 ar
     6    4    8 ar
     7    5   10 ar
     8    6   10 ar
     9    7   11 ar
    10    8   12 ar
    11    9   11 ar
    12    9   12 ar
    13   10   13 1
    14   11   13 1
    15   12   16 1
    16   13   17 2
    17   14   16 1
    18   14   18 2
    19   14   19 1
    20   15   16 1
    21    1   20 1
    22    2   21 1
    23    3   22 1
    24    4   23 1
    25    5   24 1
    26    6   25 1
    27    7   26 1
    28    8   27 1
    29    9   28 1
    30   15   29 1
    31   15   30 1
    32   15   31 1
    33   16   32 1
    34   19   33 1
