@<TRIPOS>MOLECULE
methyl_cyclohexyl_ketone
   23    23     0     0     0
SMALL
USER_CHARGES

@<TRIPOS>ATOM
      1 C1         -0.9221    0.2617   -0.5381 C.2       1 MOL         0.5630
      2 C2         -3.6084   -2.8787   -1.7939 C.3       1 MOL        -0.0753
      3 C3         -2.1232   -3.2080   -1.6774 C.3       1 MOL        -0.0753
      4 C4         -3.8300   -1.4772   -2.3548 C.3       1 MOL        -0.0753
      5 C5         -1.3753   -2.1559   -0.8628 C.3       1 MOL        -0.0656
      6 C6         -3.0859   -0.4210   -1.5420 C.3       1 MOL        -0.0656
      7 C7         -1.5959   -0.7476   -1.4194 C.3       1 MOL        -0.1591
      8 C8          0.5158    0.5784   -0.8484 C.3       1 MOL        -0.1972
      9 O1         -1.5152    0.8025    0.3940 O.2       1 MOL        -0.5321
     10 H1         -4.1005   -3.6161   -2.4380 H         1 MOL         0.0396
     11 H2         -4.0771   -2.9538   -0.8049 H         1 MOL         0.0396
     12 H3         -1.9987   -4.1921   -1.2115 H         1 MOL         0.0419
     13 H4         -1.6840   -3.2714   -2.6806 H         1 MOL         0.0419
     14 H5         -3.4875   -1.4428   -3.3964 H         1 MOL         0.0419
     15 H6         -4.9018   -1.2483   -2.3632 H         1 MOL         0.0419
     16 H7         -1.7070   -2.2018    0.1830 H         1 MOL         0.0452
     17 H8         -0.3040   -2.3919   -0.8555 H         1 MOL         0.0452
     18 H9         -3.2174    0.5624   -2.0098 H         1 MOL         0.0452
     19 H10        -3.5360   -0.3484   -0.5430 H         1 MOL         0.0452
     20 H11        -1.1252   -0.6701   -2.4072 H         1 MOL         0.0680
     21 H12         1.1183   -0.3290   -0.7587 H         1 MOL         0.0623
     22 H13         0.5915    0.9833   -1.8605 H         1 MOL         0.0623
     23 H14         0.8906    1.3230   -0.1407 H         1 MOL         0.0623
@<TRIPOS>BOND
     1    1    7 1
     2    1    8 1
     3    1    9 2
     4    2    3 1
     5    2    4 1
     6    3    5 1
     7    4    6 1
     8    5    7 1
     9    6    7 1
    10    2   10 1
    11    2   11 1
    12    3   12 1
    13    3   13 1
    14    4   14 1
    15    4   15 1
    16    5   16 1
    17    5   17 1
    18    6   18 1
    19    6   19 1
    20    7   20 1
    21    8   21 1
    22    8   22 1
    23    8   23 1
