@<TRIPOS>MOLECULE
methyl_propyl_ether
   15    14     0     0     0
SMALL
USER_CHARGES

@<TRIPOS>ATOM
      1 C1         -0.0095   -0.6551    0.8768 C.3       1 MOL        -0.0891
      2 C2          2.5593   -1.9227    4.8099 C.3       1 MOL         0.1186
      3 C3          1.2444   -0.4434    1.7060 C.3       1 MOL        -0.1008
      4 C4          1.2749   -1.3494    2.9273 C.3       1 MOL         0.1290
      5 O1          2.4629   -1.0899    3.6622 O.3       1 MOL        -0.4218
      6 H1         -0.9084   -0.4406    1.4638 H         1 MOL         0.0345
      7 H2         -0.0059    0.0088    0.0067 H         1 MOL         0.0345
      8 H3         -0.0721   -1.6868    0.5167 H         1 MOL         0.0345
      9 H4          1.6485   -1.8292    5.4064 H         1 MOL         0.0305
     10 H5          3.4282   -1.6275    5.4035 H         1 MOL         0.0305
     11 H6          2.6761   -2.9601    4.4876 H         1 MOL         0.0305
     12 H7          1.3083    0.6043    2.0234 H         1 MOL         0.0470
     13 H8          2.1333   -0.6260    1.0902 H         1 MOL         0.0470
     14 H9          0.4147   -1.1588    3.5770 H         1 MOL         0.0374
     15 H10         1.2712   -2.4035    2.6320 H         1 MOL         0.0374
@<TRIPOS>BOND
     1    1    3 1
     2    2    5 1
     3    3    4 1
     4    4    5 1
     5    1    6 1
     6    1    7 1
     7    1    8 1
     8    2    9 1
     9    2   10 1
    10    2   11 1
    11    3   12 1
    12    3   13 1
    13    4   14 1
    14    4   15 1
