@<TRIPOS>MOLECULE
acetaldehyde
    7     6     0     0     0
SMALL
USER_CHARGES

@<TRIPOS>ATOM
      1 C1         -1.5033   -0.9603    1.1512 C.2       1 MOL         0.5581
      2 C2         -0.5886   -0.9197   -0.0340 C.3       1 MOL        -0.2170
      3 O1         -1.4762   -1.8492    1.9958 O.2       1 MOL        -0.5235
      4 H1         -2.2225   -0.1273    1.2270 H         1 MOL        -0.0091
      5 H2          0.0000    0.0000    0.0000 H         1 MOL         0.0639
      6 H3          0.0827   -1.7818   -0.0193 H         1 MOL         0.0639
      7 H4         -1.1866   -0.9399   -0.9480 H         1 MOL         0.0639
@<TRIPOS>BOND
     1    1    2 1
     2    1    3 2
     3    1    4 1
     4    2    5 1
     5    2    6 1
     6    2    7 1
