@<TRIPOS>MOLECULE
SAMPL4_012
   27    27     0     0     0
SMALL
USER_CHARGES

@<TRIPOS>ATOM
      1 C1          0.9080    0.7080   -0.0010 C.2       1 MOL         0.5701
      2 C2         -0.8140   -2.2040    2.8840 C.2       1 MOL        -0.2220
      3 C3         -1.3900   -1.0550    2.5020 C.2       1 MOL        -0.1124
      4 C4          0.4850    0.0700    1.3060 C.3       1 MOL        -0.1774
      5 C5         -0.8620   -0.5070   -1.2700 C.3       1 MOL        -0.0714
      6 C6         -1.2620   -1.2250    0.0200 C.3       1 MOL        -0.0774
      7 C7          0.6130   -0.0970   -1.2620 C.3       1 MOL        -0.1637
      8 C8         -0.9860   -0.3460    1.2460 C.3       1 MOL        -0.0225
      9 C9         -2.4770   -0.4060    3.3070 C.3       1 MOL        -0.0619
     10 C10         0.9640    0.6830   -2.5250 C.3       1 MOL        -0.0861
     11 O1          1.5300    1.7690   -0.0160 O.2       1 MOL        -0.5291
     12 H1         -1.1140   -2.7100    3.7960 H         1 MOL         0.1135
     13 H2         -0.0290   -2.6650    2.2950 H         1 MOL         0.1135
     14 H3          1.1420   -0.7890    1.4890 H         1 MOL         0.0717
     15 H4          0.6450    0.7920    2.1150 H         1 MOL         0.0717
     16 H5         -1.0610   -1.1650   -2.1250 H         1 MOL         0.0487
     17 H6         -1.4980    0.3790   -1.3960 H         1 MOL         0.0487
     18 H7         -2.3270   -1.4810   -0.0310 H         1 MOL         0.0482
     19 H8         -0.7110   -2.1720    0.0960 H         1 MOL         0.0482
     20 H9          1.2440   -0.9940   -1.2210 H         1 MOL         0.0687
     21 H10        -1.6020    0.5590    1.1630 H         1 MOL         0.0587
     22 H11        -2.0460    0.2870    4.0370 H         1 MOL         0.0437
     23 H12        -3.1520    0.1540    2.6520 H         1 MOL         0.0437
     24 H13        -3.0770   -1.1390    3.8570 H         1 MOL         0.0437
     25 H14         0.3500    1.5800   -2.5900 H         1 MOL         0.0434
     26 H15         0.7840    0.0650   -3.4040 H         1 MOL         0.0434
     27 H16         2.0140    0.9710   -2.5030 H         1 MOL         0.0434
@<TRIPOS>BOND
     1    1    4 1
     2    1    7 1
     3    1   11 2
     4    2    3 2
     5    3    8 1
     6    3    9 1
     7    4    8 1
     8    5    6 1
     9    5    7 1
    10    6    8 1
    11    7   10 1
    12    2   12 1
    13    2   13 1
    14    4   14 1
    15    4   15 1
    16    5   16 1
    17    5   17 1
    18    6   18 1
    19    6   19 1
    20    7   20 1
    21    8   21 1
    22    9   22 1
    23    9   23 1
    24    9   24 1
    25   10   25 1
    26   10   26 1
    27   10   27 1
