@<TRIPOS>MOLECULE
2_chloropropane
   11    10     0     0     0
SMALL
USER_CHARGES

@<TRIPOS>ATOM
      1 C1          0.8645   -0.5428    0.3972 C.3       1 MOL        -0.1014
      2 C2          1.1975    1.1739    2.2084 C.3       1 MOL        -0.1014
      3 C3          1.0062   -0.3025    1.8932 C.3       1 MOL         0.0632
      4 Cl1         2.3974   -1.2326    2.5189 Cl        1 MOL        -0.2133
      5 H1          0.7152   -1.6065    0.1825 H         1 MOL         0.0474
      6 H2          0.0000    0.0000    0.0000 H         1 MOL         0.0474
      7 H3          1.7517   -0.2069   -0.1509 H         1 MOL         0.0474
      8 H4          1.2870    1.3367    3.2880 H         1 MOL         0.0474
      9 H5          0.3407    1.7574    1.8550 H         1 MOL         0.0474
     10 H6          2.0972    1.5751    1.7289 H         1 MOL         0.0474
     11 H7          0.1164   -0.6755    2.4103 H         1 MOL         0.0686
@<TRIPOS>BOND
     1    1    3 1
     2    2    3 1
     3    3    4 1
     4    1    5 1
     5    1    6 1
     6    1    7 1
     7    2    8 1
     8    2    9 1
     9    2   10 1
    10    3   11 1
