@<TRIPOS>MOLECULE
decan_2_one
   31    30     0     0     0
SMALL
USER_CHARGES

@<TRIPOS>ATOM
      1 C1          0.6636   -1.1483    1.6815 C.2       1 MOL         0.5590
      2 C2          0.9959   -0.4530    0.3868 C.3       1 MOL        -0.2005
      3 C3         -4.1309   -8.5706    6.5798 C.3       1 MOL        -0.0898
      4 C4         -0.2780   -2.3353    1.5799 C.3       1 MOL        -0.1786
      5 C5         -3.8502   -7.9281    5.2309 C.3       1 MOL        -0.0774
      6 C6         -0.5314   -2.9989    2.9315 C.3       1 MOL        -0.0704
      7 C7         -2.8781   -6.7557    5.3603 C.3       1 MOL        -0.0774
      8 C8         -1.4511   -4.2125    2.7917 C.3       1 MOL        -0.0796
      9 C9         -2.6247   -6.0911    4.0061 C.3       1 MOL        -0.0762
     10 C10        -1.6781   -4.8972    4.1406 C.3       1 MOL        -0.0751
     11 O1          1.1364   -0.7603    2.7486 O.2       1 MOL        -0.5286
     12 H1          1.4700   -1.1604   -0.2980 H         1 MOL         0.0618
     13 H2          0.0820   -0.0516   -0.0574 H         1 MOL         0.0618
     14 H3          1.6885    0.3715    0.5774 H         1 MOL         0.0618
     15 H4         -3.2104   -8.9560    7.0299 H         1 MOL         0.0317
     16 H5         -4.8280   -9.4063    6.4637 H         1 MOL         0.0317
     17 H6         -4.5767   -7.8499    7.2727 H         1 MOL         0.0317
     18 H7         -1.2234   -1.9793    1.1558 H         1 MOL         0.0628
     19 H8          0.1659   -3.0583    0.8865 H         1 MOL         0.0628
     20 H9         -4.7943   -7.5827    4.7937 H         1 MOL         0.0368
     21 H10        -3.4353   -8.6828    4.5526 H         1 MOL         0.0368
     22 H11        -0.9799   -2.2728    3.6209 H         1 MOL         0.0488
     23 H12         0.4231   -3.3078    3.3756 H         1 MOL         0.0488
     24 H13        -1.9284   -7.1103    5.7791 H         1 MOL         0.0391
     25 H14        -3.2847   -6.0170    6.0619 H         1 MOL         0.0391
     26 H15        -2.4146   -3.8968    2.3733 H         1 MOL         0.0429
     27 H16        -1.0109   -4.9278    2.0863 H         1 MOL         0.0429
     28 H17        -2.1954   -6.8239    3.3119 H         1 MOL         0.0385
     29 H18        -3.5773   -5.7580    3.5764 H         1 MOL         0.0385
     30 H19        -0.7171   -5.2344    4.5477 H         1 MOL         0.0381
     31 H20        -2.0959   -4.1756    4.8532 H         1 MOL         0.0381
@<TRIPOS>BOND
     1    1    2 1
     2    1    4 1
     3    1   11 2
     4    3    5 1
     5    4    6 1
     6    5    7 1
     7    6    8 1
     8    7    9 1
     9    8   10 1
    10    9   10 1
    11    2   12 1
    12    2   13 1
    13    2   14 1
    14    3   15 1
    15    3   16 1
    16    3   17 1
    17    4   18 1
    18    4   19 1
    19    5   20 1
    20    5   21 1
    21    6   22 1
    22    6   23 1
    23    7   24 1
    24    7   25 1
    25    8   26 1
    26    8   27 1
    27    9   28 1
    28    9   29 1
    29   10   30 1
    30   10   31 1
