@<TRIPOS>MOLECULE
CUP08005_AM1BCC_v1_0
   17    16     0     0     0
SMALL
USER_CHARGES

@<TRIPOS>ATOM
      1 C1          0.9772   -0.3456   -0.2659 C.3       1 MOL        -0.0923
      2 C2          1.1726    1.1785   -2.2501 C.3       1 MOL        -0.0923
      3 C3          1.9918    1.9606   -0.0023 C.3       1 MOL         0.1359
      4 C4          1.8134    0.7499   -0.9315 C.3       1 MOL        -0.0691
      5 N1          2.9004    2.6006    2.0841 N.pl3     1 MOL         0.3771
      6 O1          3.5074    2.2438    3.0920 O.3       1 MOL        -0.1853
      7 O2          2.4599    3.7098    1.7782 O.2       1 MOL        -0.1853
      8 O3          2.7017    1.5455    1.1623 O.3       1 MOL        -0.3508
      9 H1         -0.0213    0.0213   -0.0047 H         1 MOL         0.0424
     10 H2          1.4556   -0.7080    0.6498 H         1 MOL         0.0424
     11 H3          0.8573   -1.2028   -0.9370 H         1 MOL         0.0424
     12 H4          0.1759    1.6029   -2.0886 H         1 MOL         0.0424
     13 H5          1.0717    0.3252   -2.9291 H         1 MOL         0.0424
     14 H6          1.7855    1.9340   -2.7528 H         1 MOL         0.0424
     15 H7          2.5669    2.7334   -0.5280 H         1 MOL         0.0675
     16 H8          1.0073    2.3598    0.2738 H         1 MOL         0.0675
     17 H9          2.8028    0.3246   -1.1434 H         1 MOL         0.0724
@<TRIPOS>BOND
     1    1    4 1
     2    2    4 1
     3    3    4 1
     4    3    8 1
     5    5    6 1
     6    5    7 2
     7    5    8 1
     8    1    9 1
     9    1   10 1
    10    1   11 1
    11    2   12 1
    12    2   13 1
    13    2   14 1
    14    3   15 1
    15    3   16 1
    16    4   17 1
