@<TRIPOS>MOLECULE
cyclohexylamine
   20    20     0     0     0
SMALL
USER_CHARGES

@<TRIPOS>ATOM
      1 C1          1.0091    0.0279    0.4296 C.3       1 MOL        -0.0724
      2 C2          1.9788    0.6051   -0.5982 C.3       1 MOL        -0.0710
      3 C3          0.9869    0.8493    1.7159 C.3       1 MOL        -0.0710
      4 C4          1.6941    2.0823   -0.8729 C.3       1 MOL        -0.0703
      5 C5          0.7042    2.3259    1.4357 C.3       1 MOL        -0.0703
      6 C6          1.6666    2.9312    0.4051 C.3       1 MOL         0.1740
      7 N1          3.0131    3.0391    0.9711 N.3       1 MOL        -0.9132
      8 H1          0.0000    0.0006   -0.0001 H         1 MOL         0.0360
      9 H2          1.2860   -1.0075    0.6576 H         1 MOL         0.0360
     10 H3          3.0080    0.4836   -0.2397 H         1 MOL         0.0403
     11 H4          1.9017    0.0380   -1.5331 H         1 MOL         0.0403
     12 H5          0.2201    0.4520    2.3907 H         1 MOL         0.0403
     13 H6          1.9476    0.7449    2.2342 H         1 MOL         0.0403
     14 H7          2.4396    2.4748   -1.5756 H         1 MOL         0.0405
     15 H8          0.7216    2.1674   -1.3752 H         1 MOL         0.0405
     16 H9         -0.3232    2.4243    1.0610 H         1 MOL         0.0405
     17 H10         0.7456    2.8917    2.3748 H         1 MOL         0.0405
     18 H11         1.3301    3.9433    0.1540 H         1 MOL         0.0040
     19 H12         3.0337    3.8160    1.6256 H         1 MOL         0.3474
     20 H13         3.6654    3.2687    0.2268 H         1 MOL         0.3474
@<TRIPOS>BOND
     1    1    2 1
     2    1    3 1
     3    2    4 1
     4    3    5 1
     5    4    6 1
     6    5    6 1
     7    6    7 1
     8    1    8 1
     9    1    9 1
    10    2   10 1
    11    2   11 1
    12    3   12 1
    13    3   13 1
    14    4   14 1
    15    4   15 1
    16    5   16 1
    17    5   17 1
    18    6   18 1
    19    7   19 1
    20    7   20 1
