@<TRIPOS>MOLECULE
3_methylbutan_1_ol
   18    17     0     0     0
SMALL
USER_CHARGES

@<TRIPOS>ATOM
      1 C1          0.1986   -1.0772    0.0118 C.3       1 MOL        -0.0882
      2 C2         -2.1575   -1.6366   -0.6192 C.3       1 MOL        -0.0882
      3 C3         -0.3808   -1.3238   -2.4187 C.3       1 MOL        -0.0977
      4 C4         -0.5915    0.1736   -2.6082 C.3       1 MOL         0.1317
      5 C5         -0.6860   -1.8165   -0.9949 C.3       1 MOL        -0.0641
      6 O1         -0.2992    0.5077   -3.9594 O.3       1 MOL        -0.6020
      7 H1          0.0213   -1.4434    1.0286 H         1 MOL         0.0336
      8 H2          0.0000    0.0000    0.0000 H         1 MOL         0.0336
      9 H3          1.2589   -1.2294   -0.2163 H         1 MOL         0.0336
     10 H4         -2.4694   -0.5920   -0.7247 H         1 MOL         0.0336
     11 H5         -2.3325   -1.9378    0.4194 H         1 MOL         0.0336
     12 H6         -2.8075   -2.2523   -1.2481 H         1 MOL         0.0336
     13 H7         -1.0184   -1.8577   -3.1359 H         1 MOL         0.0469
     14 H8          0.6492   -1.5807   -2.6991 H         1 MOL         0.0469
     15 H9         -1.6293    0.4516   -2.3991 H         1 MOL         0.0339
     16 H10         0.0735    0.7561   -1.9643 H         1 MOL         0.0339
     17 H11        -0.4442   -2.8850   -0.9331 H         1 MOL         0.0485
     18 H12        -1.1514    0.6357   -4.4060 H         1 MOL         0.3972
@<TRIPOS>BOND
     1    1    5 1
     2    2    5 1
     3    3    4 1
     4    3    5 1
     5    4    6 1
     6    1    7 1
     7    1    8 1
     8    1    9 1
     9    2   10 1
    10    2   11 1
    11    2   12 1
    12    3   13 1
    13    3   14 1
    14    4   15 1
    15    4   16 1
    16    5   17 1
    17    6   18 1
