@<TRIPOS>MOLECULE
E_hex_2_enal
   17    16     0     0     0
SMALL
USER_CHARGES

@<TRIPOS>ATOM
      1 C1          1.8259    0.1301   -1.0402 C.2       1 MOL        -0.2832
      2 C2          0.9945    0.4384   -0.0376 C.2       1 MOL        -0.0879
      3 C3          1.4149   -0.8857   -2.0280 C.2       1 MOL         0.5602
      4 C4          1.6138    1.8764    3.4820 C.3       1 MOL        -0.0923
      5 C5          1.3140    1.4614    1.0144 C.3       1 MOL        -0.0608
      6 C6          1.2639    0.8505    2.4153 C.3       1 MOL        -0.0754
      7 O1          2.1355   -1.2064   -2.9655 O.2       1 MOL        -0.5255
      8 H1          2.7959    0.5974   -1.1592 H         1 MOL         0.1479
      9 H2          0.0270   -0.0518    0.0422 H         1 MOL         0.1239
     10 H3          0.4220   -1.3414   -1.8771 H         1 MOL        -0.0091
     11 H4          2.6240    2.2703    3.3313 H         1 MOL         0.0351
     12 H5          0.9111    2.7154    3.4649 H         1 MOL         0.0351
     13 H6          1.5725    1.4191    4.4756 H         1 MOL         0.0351
     14 H7          2.3030    1.9030    0.8398 H         1 MOL         0.0552
     15 H8          0.5847    2.2766    0.9380 H         1 MOL         0.0552
     16 H9          0.2622    0.4518    2.6172 H         1 MOL         0.0433
     17 H10         1.9643    0.0092    2.4836 H         1 MOL         0.0433
@<TRIPOS>BOND
     1    1    2 2
     2    1    3 1
     3    2    5 1
     4    3    7 2
     5    4    6 1
     6    5    6 1
     7    1    8 1
     8    2    9 1
     9    3   10 1
    10    4   11 1
    11    4   12 1
    12    4   13 1
    13    5   14 1
    14    5   15 1
    15    6   16 1
    16    6   17 1
