@<TRIPOS>MOLECULE
NN_dimethyl_p_nitrobenzamide
   24    24     0     0     0
SMALL
USER_CHARGES

@<TRIPOS>ATOM
      1 C1          0.8445   -0.3264    0.5966 C.ar      1 MOL        -0.1053
      2 C2          2.9578   -1.4948    0.6725 C.ar      1 MOL        -0.1053
      3 C3          0.8407   -0.2429    1.9890 C.ar      1 MOL        -0.0765
      4 C4          2.9539   -1.4113    2.0649 C.ar      1 MOL        -0.0765
      5 C5          1.9030   -0.9523   -0.0616 C.ar      1 MOL        -0.0912
      6 C6          1.8955   -0.7854    2.7231 C.ar      1 MOL        -0.1576
      7 C7          1.9073   -1.0377   -1.5134 C.2       1 MOL         0.6635
      8 C8          2.5646   -0.0244   -3.7094 C.3       1 MOL         0.0818
      9 C9          3.1112    1.1633   -1.6144 C.3       1 MOL         0.0818
     10 N1          1.8922   -0.6989    4.1402 N.pl3     1 MOL         0.3096
     11 N2          2.5066   -0.0028   -2.2546 N.am      1 MOL        -0.4775
     12 O1          1.3852   -2.0404   -2.0186 O.2       1 MOL        -0.5823
     13 O2          0.9311   -0.1304    4.7127 O.3       1 MOL        -0.2006
     14 O3          2.8503   -1.1937    4.7820 O.2       1 MOL        -0.2006
     15 H1          0.0179    0.1007    0.0342 H         1 MOL         0.1599
     16 H2          3.7867   -1.9858    0.1691 H         1 MOL         0.1599
     17 H3          0.0092    0.2472    2.4892 H         1 MOL         0.1719
     18 H4          3.7829   -1.8373    2.6249 H         1 MOL         0.1719
     19 H5          3.5919    0.1728   -4.0225 H         1 MOL         0.0455
     20 H6          1.8972    0.7469   -4.0999 H         1 MOL         0.0455
     21 H7          2.2460   -1.0083   -4.0603 H         1 MOL         0.0455
     22 H8          2.3449    1.6820   -1.0348 H         1 MOL         0.0455
     23 H9          3.5091    1.8232   -2.3885 H         1 MOL         0.0455
     24 H10         3.9169    0.8271   -0.9583 H         1 MOL         0.0455
@<TRIPOS>BOND
     1    1    3 ar
     2    1    5 ar
     3    2    4 ar
     4    2    5 ar
     5    3    6 ar
     6    4    6 ar
     7    5    7 1
     8    6   10 1
     9    7   11 am
    10    7   12 2
    11    8   11 1
    12    9   11 1
    13   10   13 1
    14   10   14 2
    15    1   15 1
    16    2   16 1
    17    3   17 1
    18    4   18 1
    19    8   19 1
    20    8   20 1
    21    8   21 1
    22    9   22 1
    23    9   23 1
    24    9   24 1
