@<TRIPOS>MOLECULE
methylcyclohexane
   21    21     0     0     0
SMALL
USER_CHARGES

@<TRIPOS>ATOM
      1 C1          0.8995   -0.5234   -0.3432 C.3       1 MOL        -0.0735
      2 C2          0.8735   -1.9668    0.1497 C.3       1 MOL        -0.0734
      3 C3          0.9867   -0.4515   -1.8645 C.3       1 MOL        -0.0734
      4 C4          2.0621   -2.7649   -0.3812 C.3       1 MOL        -0.0701
      5 C5          2.1754   -1.2472   -2.3989 C.3       1 MOL        -0.0701
      6 C6          2.1480   -2.7023   -1.9123 C.3       1 MOL        -0.0630
      7 C7          3.3738   -3.4625   -2.4153 C.3       1 MOL        -0.0864
      8 H1         -0.0002   -0.0003   -0.0002 H         1 MOL         0.0367
      9 H2          1.7591   -0.0030    0.0965 H         1 MOL         0.0367
     10 H3          0.8794   -1.9823    1.2453 H         1 MOL         0.0371
     11 H4         -0.0597   -2.4458   -0.1716 H         1 MOL         0.0371
     12 H5          0.0600   -0.8422   -2.3023 H         1 MOL         0.0371
     13 H6          1.0724    0.5946   -2.1798 H         1 MOL         0.0371
     14 H7          2.9880   -2.3725    0.0593 H         1 MOL         0.0374
     15 H8          1.9736   -3.8084   -0.0562 H         1 MOL         0.0374
     16 H9          2.1661   -1.2216   -3.4951 H         1 MOL         0.0374
     17 H10         3.1080   -0.7653   -2.0780 H         1 MOL         0.0374
     18 H11         1.2600   -3.1928   -2.3311 H         1 MOL         0.0427
     19 H12         3.8763   -3.9721   -1.5877 H         1 MOL         0.0320
     20 H13         3.0833   -4.2131   -3.1565 H         1 MOL         0.0320
     21 H14         4.0872   -2.7762   -2.8812 H         1 MOL         0.0320
@<TRIPOS>BOND
     1    1    2 1
     2    1    3 1
     3    2    4 1
     4    3    5 1
     5    4    6 1
     6    5    6 1
     7    6    7 1
     8    1    8 1
     9    1    9 1
    10    2   10 1
    11    2   11 1
    12    3   12 1
    13    3   13 1
    14    4   14 1
    15    4   15 1
    16    5   16 1
    17    5   17 1
    18    6   18 1
    19    7   19 1
    20    7   20 1
    21    7   21 1
