@<TRIPOS>MOLECULE
1,4-dichloro-2-phenyl-benzene
   22    23     0     0     0
SMALL
USER_CHARGES

@<TRIPOS>ATOM
      1 C1          1.8851   -1.0363   -0.1124 C.ar      1 MOL        -0.1227
      2 C2          0.8066   -0.4630    0.5610 C.ar      1 MOL        -0.1317
      3 C3          2.9210   -1.6309    0.6081 C.ar      1 MOL        -0.1309
      4 C4          0.7638   -0.4841    1.9551 C.ar      1 MOL        -0.1058
      5 C5          2.8783   -1.6520    2.0022 C.ar      1 MOL        -0.1060
      6 C6          1.6259   -1.2205    6.9058 C.ar      1 MOL        -0.1159
      7 C7          2.2399   -0.1344    6.2823 C.ar      1 MOL        -0.1198
      8 C8          1.1410   -2.1868    4.7452 C.ar      1 MOL        -0.1059
      9 C9          1.7997   -1.0786    2.6757 C.ar      1 MOL        -0.0536
     10 C10         1.7549   -1.1005    4.1216 C.ar      1 MOL        -0.0253
     11 C11         1.0765   -2.2468    6.1373 C.ar      1 MOL         0.0134
     12 C12         2.3044   -0.0743    4.8902 C.ar      1 MOL         0.0277
     13 Cl1         0.3169   -3.5852    6.9078 Cl        1 MOL        -0.0865
     14 Cl2         3.0780    1.2956    4.1714 Cl        1 MOL        -0.0778
     15 H1          1.9174   -1.0212   -1.1979 H         1 MOL         0.1317
     16 H2         -0.0009   -0.0015    0.0001 H         1 MOL         0.1337
     17 H3          3.7605   -2.0787    0.0844 H         1 MOL         0.1346
     18 H4         -0.0840   -0.0332    2.4655 H         1 MOL         0.1393
     19 H5          3.6927   -2.1196    2.5504 H         1 MOL         0.1389
     20 H6          1.5820   -1.2529    7.9915 H         1 MOL         0.1520
     21 H7          2.6632    0.6565    6.8965 H         1 MOL         0.1526
     22 H8          0.7104   -2.9889    4.1485 H         1 MOL         0.1583
@<TRIPOS>BOND
     1    1    2 ar
     2    1    3 ar
     3    2    4 ar
     4    3    5 ar
     5    4    9 ar
     6    5    9 ar
     7    6    7 ar
     8    6   11 ar
     9    7   12 ar
    10    8   10 ar
    11    8   11 ar
    12    9   10 1
    13   10   12 ar
    14   11   13 1
    15   12   14 1
    16    1   15 1
    17    2   16 1
    18    3   17 1
    19    4   18 1
    20    5   19 1
    21    6   20 1
    22    7   21 1
    23    8   22 1
