@<TRIPOS>MOLECULE
n_propylbenzene
   21    21     0     0     0
SMALL
USER_CHARGES

@<TRIPOS>ATOM
      1 C1          1.8846   -1.0376   -0.1090 C.ar      1 MOL        -0.1336
      2 C2          0.8176   -0.4410    0.5626 C.ar      1 MOL        -0.1283
      3 C3          2.9348   -1.6038    0.6137 C.ar      1 MOL        -0.1283
      4 C4          0.8008   -0.4105    1.9570 C.ar      1 MOL        -0.1280
      5 C5          2.9180   -1.5734    2.0082 C.ar      1 MOL        -0.1280
      6 C6          1.8509   -0.9767    2.6799 C.ar      1 MOL        -0.0665
      7 C7          2.4573    0.3578    6.2517 C.3       1 MOL        -0.0909
      8 C8          1.8328   -0.9437    4.1709 C.3       1 MOL        -0.0457
      9 C9          2.5098    0.3142    4.7328 C.3       1 MOL        -0.0739
     10 H1          1.8979   -1.0612   -1.1948 H         1 MOL         0.1299
     11 H2          0.0002    0.0000   -0.0002 H         1 MOL         0.1297
     12 H3          3.7655   -2.0682    0.0906 H         1 MOL         0.1297
     13 H4         -0.0347    0.0567    2.4718 H         1 MOL         0.1306
     14 H5          3.7404   -2.0171    2.5631 H         1 MOL         0.1306
     15 H6          1.4223    0.3576    6.6086 H         1 MOL         0.0329
     16 H7          2.9715   -0.5053    6.6867 H         1 MOL         0.0329
     17 H8          2.9441    1.2655    6.6221 H         1 MOL         0.0329
     18 H9          0.7948   -0.9978    4.5394 H         1 MOL         0.0459
     19 H10         2.3298   -1.8406    4.5771 H         1 MOL         0.0459
     20 H11         3.5569    0.3506    4.4085 H         1 MOL         0.0411
     21 H12         2.0224    1.2108    4.3310 H         1 MOL         0.0411
@<TRIPOS>BOND
     1    1    2 ar
     2    1    3 ar
     3    2    4 ar
     4    3    5 ar
     5    4    6 ar
     6    5    6 ar
     7    6    8 1
     8    7    9 1
     9    8    9 1
    10    1   10 1
    11    2   11 1
    12    3   12 1
    13    4   13 1
    14    5   14 1
    15    7   15 1
    16    7   16 1
    17    7   17 1
    18    8   18 1
    19    8   19 1
    20    9   20 1
    21    9   21 1
