@<TRIPOS>MOLECULE
CUP08045_AM1BCC_v1_0
   30    29     0     0     0
SMALL
USER_CHARGES

@<TRIPOS>ATOM
      1 C1         -0.2525   -0.3128   -0.2175 C.3       1 MOL        -0.1036
      2 C2          0.2967   -1.2186    5.7247 C.3       1 MOL        -0.1036
      3 C3          8.9201   -1.9664    0.0309 C.3       1 MOL        -0.0934
      4 C4          0.9534    0.2593    0.4989 C.3       1 MOL         0.1333
      5 C5          1.0242   -0.2552    4.8093 C.3       1 MOL         0.1333
      6 C6          7.7090   -1.1915    0.5178 C.3       1 MOL        -0.0614
      7 C7          5.0908   -1.1085    1.3536 C.3       1 MOL         0.1337
      8 O1          0.9944   -0.2819    1.8106 O.3       1 MOL        -0.4658
      9 O2          1.9111   -1.0004    3.9893 O.3       1 MOL        -0.4658
     10 P1          2.4252   -0.3603    2.5830 P.3       1 MOL         0.6259
     11 S1          3.2735    1.3809    2.8110 S.2       1 MOL        -0.4606
     12 S2          6.3108   -2.3215    0.7840 S.3       1 MOL        -0.0250
     13 S3          3.5046   -1.9058    1.6583 S.3       1 MOL        -0.3488
     14 H1         -0.1845   -1.4044   -0.2732 H         1 MOL         0.0501
     15 H2         -1.1729   -0.0785    0.3277 H         1 MOL         0.0501
     16 H3         -0.3309    0.0885   -1.2317 H         1 MOL         0.0501
     17 H4         -0.2697   -1.9510    5.1400 H         1 MOL         0.0501
     18 H5          1.0085   -1.7820    6.3369 H         1 MOL         0.0501
     19 H6         -0.3923   -0.6850    6.3852 H         1 MOL         0.0501
     20 H7          9.2404   -2.7144    0.7641 H         1 MOL         0.0447
     21 H8          8.7190   -2.4729   -0.9191 H         1 MOL         0.0447
     22 H9          9.7594   -1.2819   -0.1308 H         1 MOL         0.0447
     23 H10         0.8666    1.3479    0.5679 H         1 MOL         0.0665
     24 H11         1.8658    0.0122   -0.0521 H         1 MOL         0.0665
     25 H12         1.6022    0.4583    5.4041 H         1 MOL         0.0665
     26 H13         0.3012    0.2943    4.1988 H         1 MOL         0.0665
     27 H14         7.4285   -0.4388   -0.2254 H         1 MOL         0.0941
     28 H15         7.9478   -0.6843    1.4577 H         1 MOL         0.0941
     29 H16         5.4474   -0.6480    2.2787 H         1 MOL         0.1062
     30 H17         4.9615   -0.3342    0.5929 H         1 MOL         0.1062
@<TRIPOS>BOND
     1    1    4 1
     2    2    5 1
     3    3    6 1
     4    4    8 1
     5    5    9 1
     6    6   12 1
     7    7   12 1
     8    7   13 1
     9    8   10 1
    10    9   10 1
    11   10   11 2
    12   10   13 1
    13    1   14 1
    14    1   15 1
    15    1   16 1
    16    2   17 1
    17    2   18 1
    18    2   19 1
    19    3   20 1
    20    3   21 1
    21    3   22 1
    22    4   23 1
    23    4   24 1
    24    5   25 1
    25    5   26 1
    26    6   27 1
    27    6   28 1
    28    7   29 1
    29    7   30 1
