@<TRIPOS>MOLECULE
propanone
   10     9     0     0     0
SMALL
USER_CHARGES

@<TRIPOS>ATOM
      1 C1         -0.0565   -0.4470    2.0875 C.2       1 MOL         0.5580
      2 C2         -0.7025   -0.4113    0.7289 C.3       1 MOL        -0.2002
      3 C3          0.3848    0.8720    2.6618 C.3       1 MOL        -0.2002
      4 O1          0.1012   -1.5023    2.6993 O.2       1 MOL        -0.5290
      5 H1         -1.6066    0.2014    0.7693 H         1 MOL         0.0619
      6 H2          0.0000    0.0000    0.0000 H         1 MOL         0.0619
      7 H3         -0.9758   -1.4251    0.4237 H         1 MOL         0.0619
      8 H4          0.8354    0.7136    3.6456 H         1 MOL         0.0619
      9 H5         -0.4796    1.5315    2.7711 H         1 MOL         0.0619
     10 H6          1.1270    1.3287    2.0026 H         1 MOL         0.0619
@<TRIPOS>BOND
     1    1    2 1
     2    1    3 1
     3    1    4 2
     4    2    5 1
     5    2    6 1
     6    2    7 1
     7    3    8 1
     8    3    9 1
     9    3   10 1
