@<TRIPOS>MOLECULE
4_cyanophenol
   14    14     0     0     0
SMALL
USER_CHARGES

@<TRIPOS>ATOM
      1 C1          1.9049   -1.0682   -1.5334 C.1       1 MOL         0.2351
      2 C2          0.8178   -0.4385    0.5644 C.ar      1 MOL        -0.0531
      3 C3          2.9371   -1.5972    0.6197 C.ar      1 MOL        -0.0531
      4 C4          0.7994   -0.4058    1.9588 C.ar      1 MOL        -0.1926
      5 C5          2.9185   -1.5646    2.0141 C.ar      1 MOL        -0.1926
      6 C6          1.8867   -1.0341   -0.1051 C.ar      1 MOL        -0.0574
      7 C7          1.8497   -0.9689    2.6836 C.ar      1 MOL         0.1495
      8 N1          1.9198   -1.0960   -2.6950 N.1       1 MOL        -0.3661
      9 O1          1.8308   -0.9369    4.0444 O.3       1 MOL        -0.4913
     10 H1         -0.0081    0.0057    0.0137 H         1 MOL         0.1478
     11 H2          3.7778   -2.0637    0.1119 H         1 MOL         0.1478
     12 H3         -0.0355    0.0599    2.4751 H         1 MOL         0.1503
     13 H4          3.7401   -2.0045    2.5731 H         1 MOL         0.1503
     14 H5          1.1748   -0.2771    4.3345 H         1 MOL         0.4254
@<TRIPOS>BOND
     1    1    6 1
     2    1    8 3
     3    2    4 ar
     4    2    6 ar
     5    3    5 ar
     6    3    6 ar
     7    4    7 ar
     8    5    7 ar
     9    7    9 1
    10    2   10 1
    11    3   11 1
    12    4   12 1
    13    5   13 1
    14    9   14 1
