@<TRIPOS>MOLECULE
2_methylbutan_1_ol
   18    17     0     0     0
SMALL
USER_CHARGES

@<TRIPOS>ATOM
      1 C1          2.5874    3.6334    1.2076 C.3       1 MOL        -0.0910
      2 C2          3.4203    2.0803   -1.1965 C.3       1 MOL        -0.0876
      3 C3          2.4492    2.1207    1.1138 C.3       1 MOL        -0.0732
      4 C4          2.1012    0.0841   -0.4120 C.3       1 MOL         0.1342
      5 C5          2.2498    1.6090   -0.3259 C.3       1 MOL        -0.0952
      6 O1          1.0092   -0.3628    0.3793 O.3       1 MOL        -0.6003
      7 H1          3.5118    3.9821    0.7383 H         1 MOL         0.0341
      8 H2          1.7418    4.1363    0.7282 H         1 MOL         0.0341
      9 H3          2.6141    3.9428    2.2575 H         1 MOL         0.0341
     10 H4          4.3699    1.6481   -0.8637 H         1 MOL         0.0362
     11 H5          3.5137    3.1708   -1.1648 H         1 MOL         0.0362
     12 H6          3.2666    1.7911   -2.2416 H         1 MOL         0.0362
     13 H7          1.5861    1.8195    1.7209 H         1 MOL         0.0392
     14 H8          3.3290    1.6510    1.5698 H         1 MOL         0.0392
     15 H9          3.0096   -0.4187   -0.0662 H         1 MOL         0.0381
     16 H10         1.9238   -0.2242   -1.4482 H         1 MOL         0.0381
     17 H11         1.3337    2.0583   -0.7308 H         1 MOL         0.0501
     18 H12         0.3603    0.3595    0.3957 H         1 MOL         0.3976
@<TRIPOS>BOND
     1    1    3 1
     2    2    5 1
     3    3    5 1
     4    4    5 1
     5    4    6 1
     6    1    7 1
     7    1    8 1
     8    1    9 1
     9    2   10 1
    10    2   11 1
    11    2   12 1
    12    3   13 1
    13    3   14 1
    14    4   15 1
    15    4   16 1
    16    5   17 1
    17    6   18 1
