@<TRIPOS>MOLECULE
2_methylpentan_2_ol
   21    20     0     0     0
SMALL
USER_CHARGES

@<TRIPOS>ATOM
      1 C1          0.9423   -0.1186   -0.5403 C.3       1 MOL        -0.0916
      2 C2         -0.2913   -4.8812   -1.5864 C.3       1 MOL        -0.1084
      3 C3          1.3843   -3.8070   -3.1121 C.3       1 MOL        -0.1084
      4 C4          0.7887   -1.1227   -1.6735 C.3       1 MOL        -0.0736
      5 C5          0.4071   -2.5093   -1.1412 C.3       1 MOL        -0.0861
      6 C6          0.1536   -3.5662   -2.2352 C.3       1 MOL         0.1515
      7 O1         -0.9126   -3.1052   -3.0679 O.3       1 MOL        -0.6032
      8 H1          1.7212   -0.4347    0.1611 H         1 MOL         0.0327
      9 H2          0.0049   -0.0054    0.0134 H         1 MOL         0.0327
     10 H3          1.2213    0.8620   -0.9385 H         1 MOL         0.0327
     11 H4         -0.5256   -5.6347   -2.3470 H         1 MOL         0.0420
     12 H5         -1.2083   -4.7375   -1.0034 H         1 MOL         0.0420
     13 H6          0.4818   -5.2861   -0.9252 H         1 MOL         0.0420
     14 H7          1.6306   -2.9221   -3.7081 H         1 MOL         0.0420
     15 H8          1.1952   -4.6097   -3.8347 H         1 MOL         0.0420
     16 H9          2.2572   -4.0844   -2.5128 H         1 MOL         0.0420
     17 H10         0.0244   -0.7586   -2.3689 H         1 MOL         0.0420
     18 H11         1.7346   -1.1738   -2.2228 H         1 MOL         0.0420
     19 H12         1.1930   -2.8628   -0.4615 H         1 MOL         0.0443
     20 H13        -0.5071   -2.3976   -0.5427 H         1 MOL         0.0443
     21 H14        -0.5767   -3.1252   -3.9762 H         1 MOL         0.3973
@<TRIPOS>BOND
     1    1    4 1
     2    2    6 1
     3    3    6 1
     4    4    5 1
     5    5    6 1
     6    6    7 1
     7    1    8 1
     8    1    9 1
     9    1   10 1
    10    2   11 1
    11    2   12 1
    12    2   13 1
    13    3   14 1
    14    3   15 1
    15    3   16 1
    16    4   17 1
    17    4   18 1
    18    5   19 1
    19    5   20 1
    20    7   21 1
