@<TRIPOS>MOLECULE
isopropyl_formate
   14    13     0     0     0
SMALL
USER_CHARGES

@<TRIPOS>ATOM
      1 C1          0.9635    3.0983    2.2210 C.2       1 MOL         0.6281
      2 C2          1.0765    0.0499    0.1958 C.3       1 MOL        -0.1164
      3 C3          2.8427    1.0382    1.6976 C.3       1 MOL        -0.1164
      4 C4          1.3532    0.9191    1.4130 C.3       1 MOL         0.1475
      5 O1          1.0206    2.8427    3.4136 O.2       1 MOL        -0.5168
      6 O2          0.8123    2.2184    1.1940 O.3       1 MOL        -0.4398
      7 H1          1.0305    4.1162    1.8069 H         1 MOL         0.0541
      8 H2          1.4532   -0.9673    0.3403 H         1 MOL         0.0493
      9 H3          0.0000    0.0000    0.0000 H         1 MOL         0.0493
     10 H4          1.5401    0.4709   -0.7032 H         1 MOL         0.0493
     11 H5          3.2882    0.0592    1.8989 H         1 MOL         0.0493
     12 H6          3.0145    1.6858    2.5641 H         1 MOL         0.0493
     13 H7          3.3699    1.4961    0.8534 H         1 MOL         0.0493
     14 H8          0.8468    0.4961    2.2868 H         1 MOL         0.0640
@<TRIPOS>BOND
     1    1    5 2
     2    1    6 1
     3    2    4 1
     4    3    4 1
     5    4    6 1
     6    1    7 1
     7    2    8 1
     8    2    9 1
     9    2   10 1
    10    3   11 1
    11    3   12 1
    12    3   13 1
    13    4   14 1
