@<TRIPOS>MOLECULE
E_hept_2_ene
   21    20     0     0     0
SMALL
USER_CHARGES

@<TRIPOS>ATOM
      1 C1          1.4387    1.3907   -0.6400 C.2       1 MOL        -0.1744
      2 C2          1.0587    0.2352   -0.0758 C.2       1 MOL        -0.1711
      3 C3          0.4863    2.3971   -1.1953 C.3       1 MOL        -0.0595
      4 C4          2.5670   -2.2827    4.0333 C.3       1 MOL        -0.0894
      5 C5          2.0180   -0.7777    0.4795 C.3       1 MOL        -0.0456
      6 C6          2.8012   -2.0581    2.5473 C.3       1 MOL        -0.0785
      7 C7          1.8091   -1.0434    1.9736 C.3       1 MOL        -0.0722
      8 H1          2.4959    1.6331   -0.7073 H         1 MOL         0.1183
      9 H2          0.0006   -0.0067   -0.0134 H         1 MOL         0.1196
     10 H3          0.6884    2.5539   -2.2593 H         1 MOL         0.0387
     11 H4          0.6106    3.3529   -0.6768 H         1 MOL         0.0387
     12 H5         -0.5572    2.0845   -1.0885 H         1 MOL         0.0387
     13 H6          2.6830   -1.3497    4.5939 H         1 MOL         0.0313
     14 H7          1.5606   -2.6719    4.2175 H         1 MOL         0.0313
     15 H8          3.2879   -3.0068    4.4254 H         1 MOL         0.0313
     16 H9          1.8702   -1.7168   -0.0675 H         1 MOL         0.0437
     17 H10         3.0571   -0.4743    0.3033 H         1 MOL         0.0437
     18 H11         2.7024   -3.0141    2.0199 H         1 MOL         0.0383
     19 H12         3.8301   -1.7107    2.4010 H         1 MOL         0.0383
     20 H13         0.7885   -1.4199    2.1165 H         1 MOL         0.0394
     21 H14         1.8788   -0.1017    2.5328 H         1 MOL         0.0394
@<TRIPOS>BOND
     1    1    2 2
     2    1    3 1
     3    2    5 1
     4    4    6 1
     5    5    7 1
     6    6    7 1
     7    1    8 1
     8    2    9 1
     9    3   10 1
    10    3   11 1
    11    3   12 1
    12    4   13 1
    13    4   14 1
    14    4   15 1
    15    5   16 1
    16    5   17 1
    17    6   18 1
    18    6   19 1
    19    7   20 1
    20    7   21 1
