@<TRIPOS>MOLECULE
p_xylene
   18    18     0     0     0
SMALL
USER_CHARGES

@<TRIPOS>ATOM
      1 C1          0.8178   -0.4385    0.5644 C.ar      1 MOL        -0.1273
      2 C2          0.7994   -0.4058    1.9588 C.ar      1 MOL        -0.1273
      3 C3          2.9371   -1.5972    0.6197 C.ar      1 MOL        -0.1273
      4 C4          2.9185   -1.5646    2.0141 C.ar      1 MOL        -0.1273
      5 C5          1.8867   -1.0341   -0.1051 C.ar      1 MOL        -0.0723
      6 C6          1.8497   -0.9689    2.6836 C.ar      1 MOL        -0.0723
      7 C7          1.9062   -1.0696   -1.5957 C.3       1 MOL        -0.0593
      8 C8          1.8300   -0.9337    4.1742 C.3       1 MOL        -0.0593
      9 H1         -0.0047    0.0028    0.0080 H         1 MOL         0.1297
     10 H2         -0.0371    0.0613    2.4718 H         1 MOL         0.1297
     11 H3          3.7741   -2.0633    0.1065 H         1 MOL         0.1297
     12 H4          3.7414   -2.0053    2.5707 H         1 MOL         0.1297
     13 H5          2.1012   -2.0889   -1.9512 H         1 MOL         0.0422
     14 H6          0.9494   -0.7321   -2.0151 H         1 MOL         0.0422
     15 H7          2.6817   -0.4060   -2.0001 H         1 MOL         0.0422
     16 H8          2.7332   -0.4426    4.5569 H         1 MOL         0.0422
     17 H9          0.9532   -0.3895    4.5487 H         1 MOL         0.0422
     18 H10         1.7792   -1.9460    4.5963 H         1 MOL         0.0422
@<TRIPOS>BOND
     1    1    2 ar
     2    1    5 ar
     3    2    6 ar
     4    3    4 ar
     5    3    5 ar
     6    4    6 ar
     7    5    7 1
     8    6    8 1
     9    1    9 1
    10    2   10 1
    11    3   11 1
    12    4   12 1
    13    7   13 1
    14    7   14 1
    15    7   15 1
    16    8   16 1
    17    8   17 1
    18    8   18 1
