@<TRIPOS>MOLECULE
trichloroethene
    6     5     0     0     0
SMALL
USER_CHARGES

@<TRIPOS>ATOM
      1 C1          0.0000   -0.0000    0.0000 C.2       1 MOL        -0.0691
      2 C2          0.4837   -0.6804   -1.0427 C.2       1 MOL         0.0617
      3 Cl1        -0.5674    1.6177   -0.0394 Cl        1 MOL        -0.0653
      4 Cl2         1.0400   -2.3115   -0.9348 Cl        1 MOL        -0.0509
      5 Cl3         0.5723    0.0808   -2.5942 Cl        1 MOL        -0.0509
      6 H1         -0.0829   -0.4152    0.9968 H         1 MOL         0.1745
@<TRIPOS>BOND
     1    1    2 2
     2    1    3 1
     3    2    4 1
     4    2    5 1
     5    1    6 1
