@<TRIPOS>MOLECULE
2,7-dichlorodibenzo-p-dioxin
   22    24     0     0     0
SMALL
USER_CHARGES

@<TRIPOS>ATOM
      1 C1         -3.1487    0.4152    1.2196 C.ar      1 MOL        -0.1086
      2 C2         -4.8168   -4.8184    0.9815 C.ar      1 MOL        -0.1071
      3 C3         -1.8584    0.7400    0.8000 C.ar      1 MOL        -0.1217
      4 C4         -6.1071   -5.1433    1.4010 C.ar      1 MOL        -0.1218
      5 C5         -1.4367   -1.5819    0.2693 C.ar      1 MOL        -0.1128
      6 C6         -6.5287   -2.8214    1.9320 C.ar      1 MOL        -0.1126
      7 C7         -3.5799   -0.9097    1.1626 C.ar      1 MOL         0.0624
      8 C8         -4.3856   -3.4936    1.0385 C.ar      1 MOL         0.0623
      9 C9         -2.7266   -1.9051    0.6889 C.ar      1 MOL         0.0731
     10 C10        -5.2389   -2.4982    1.5123 C.ar      1 MOL         0.0715
     11 C11        -1.0039   -0.2568    0.3257 C.ar      1 MOL         0.0188
     12 C12        -6.9616   -4.1465    1.8755 C.ar      1 MOL         0.0185
     13 O1         -4.8561   -1.1828    1.5855 O.3       1 MOL        -0.2181
     14 O2         -3.1093   -3.2205    0.6157 O.3       1 MOL        -0.2197
     15 Cl1         0.5870    0.1500   -0.1905 Cl        1 MOL        -0.0792
     16 Cl2        -8.5523   -4.5533    2.3917 Cl        1 MOL        -0.0788
     17 H1         -3.8082    1.1960    1.5880 H         1 MOL         0.1604
     18 H2         -4.1573   -5.5992    0.6135 H         1 MOL         0.1613
     19 H3         -1.5313    1.7755    0.8477 H         1 MOL         0.1559
     20 H4         -6.4345   -6.1787    1.3528 H         1 MOL         0.1556
     21 H5         -0.7764   -2.3634   -0.0990 H         1 MOL         0.1701
     22 H6         -7.1890   -2.0400    2.3004 H         1 MOL         0.1705
@<TRIPOS>BOND
     1    1    3 ar
     2    1    7 ar
     3    2    4 ar
     4    2    8 ar
     5    3   11 ar
     6    4   12 ar
     7    5    9 ar
     8    5   11 ar
     9    6   10 ar
    10    6   12 ar
    11    7    9 ar
    12    7   13 1
    13    8   10 ar
    14    8   14 1
    15    9   14 1
    16   10   13 1
    17   11   15 1
    18   12   16 1
    19    1   17 1
    20    2   18 1
    21    3   19 1
    22    4   20 1
    23    5   21 1
    24    6   22 1
