@<TRIPOS>MOLECULE
heptan_4_one
   22    21     0     0     0
SMALL
USER_CHARGES

@<TRIPOS>ATOM
      1 C1          2.6506    2.6141    2.8467 C.2       1 MOL         0.5594
      2 C2          1.0139    0.3945    0.1167 C.3       1 MOL        -0.0923
      3 C3          5.4839    4.5631    4.6448 C.3       1 MOL        -0.0923
      4 C4          2.5198    1.7872    1.5770 C.3       1 MOL        -0.1790
      5 C5          4.0251    3.2153    3.0973 C.3       1 MOL        -0.1790
      6 C6          1.1267    1.1877    1.4083 C.3       1 MOL        -0.0715
      7 C7          4.0924    4.0014    4.4033 C.3       1 MOL        -0.0715
      8 O1          1.7088    2.7842    3.6191 O.2       1 MOL        -0.5277
      9 H1          1.7316   -0.4320    0.1000 H         1 MOL         0.0352
     10 H2          0.0086   -0.0267    0.0169 H         1 MOL         0.0352
     11 H3          1.2030    1.0320   -0.7529 H         1 MOL         0.0352
     12 H4          5.7809    5.2372    3.8350 H         1 MOL         0.0352
     13 H5          5.5078    5.1274    5.5825 H         1 MOL         0.0352
     14 H6          6.2245    3.7597    4.7129 H         1 MOL         0.0352
     15 H7          2.7509    2.4380    0.7263 H         1 MOL         0.0619
     16 H8          3.2675    0.9874    1.6180 H         1 MOL         0.0619
     17 H9          4.2633    3.8729    2.2539 H         1 MOL         0.0619
     18 H10         4.7521    2.3958    3.1172 H         1 MOL         0.0619
     19 H11         0.8963    0.5322    2.2565 H         1 MOL         0.0488
     20 H12         0.3739    1.9849    1.4103 H         1 MOL         0.0488
     21 H13         3.3687    4.8250    4.3819 H         1 MOL         0.0488
     22 H14         3.8122    3.3554    5.2438 H         1 MOL         0.0488
@<TRIPOS>BOND
     1    1    4 1
     2    1    5 1
     3    1    8 2
     4    2    6 1
     5    3    7 1
     6    4    6 1
     7    5    7 1
     8    2    9 1
     9    2   10 1
    10    2   11 1
    11    3   12 1
    12    3   13 1
    13    3   14 1
    14    4   15 1
    15    4   16 1
    16    5   17 1
    17    5   18 1
    18    6   19 1
    19    6   20 1
    20    7   21 1
    21    7   22 1
