@<TRIPOS>MOLECULE
hexan_2_one
   19    18     0     0     0
SMALL
USER_CHARGES

@<TRIPOS>ATOM
      1 C1          1.0524   -1.1535    1.4356 C.2       1 MOL         0.5592
      2 C2          0.6248    0.1472    0.8064 C.3       1 MOL        -0.1999
      3 C3          3.1880   -5.7095    0.9832 C.3       1 MOL        -0.0898
      4 C4          1.7900   -2.1235    0.5294 C.3       1 MOL        -0.1793
      5 C5          2.8590   -4.3961    0.2917 C.3       1 MOL        -0.0800
      6 C6          2.1535   -3.4261    1.2382 C.3       1 MOL        -0.0703
      7 O1          0.8085   -1.3966    2.6164 O.2       1 MOL        -0.5288
      8 H1          1.5048    0.6894    0.4521 H         1 MOL         0.0619
      9 H2         -0.0551   -0.0542   -0.0249 H         1 MOL         0.0619
     10 H3          0.1051    0.7620    1.5467 H         1 MOL         0.0619
     11 H4          2.2787   -6.2026    1.3414 H         1 MOL         0.0325
     12 H5          3.6912   -6.3885    0.2876 H         1 MOL         0.0325
     13 H6          3.8511   -5.5470    1.8389 H         1 MOL         0.0325
     14 H7          2.6990   -1.6260    0.1732 H         1 MOL         0.0631
     15 H8          1.1465   -2.3345   -0.3318 H         1 MOL         0.0631
     16 H9          2.2225   -4.5973   -0.5779 H         1 MOL         0.0417
     17 H10         3.7855   -3.9445   -0.0817 H         1 MOL         0.0417
     18 H11         2.8012   -3.2110    2.0973 H         1 MOL         0.0481
     19 H12         1.2453   -3.8944    1.6379 H         1 MOL         0.0481
@<TRIPOS>BOND
     1    1    2 1
     2    1    4 1
     3    1    7 2
     4    3    5 1
     5    4    6 1
     6    5    6 1
     7    2    8 1
     8    2    9 1
     9    2   10 1
    10    3   11 1
    11    3   12 1
    12    3   13 1
    13    4   14 1
    14    4   15 1
    15    5   16 1
    16    5   17 1
    17    6   18 1
    18    6   19 1
