@<TRIPOS>MOLECULE
diethoxymethoxybenzene
   30    30     0     0     0
SMALL
USER_CHARGES

@<TRIPOS>ATOM
      1 C1         -5.3212    3.2310    3.9369 C.ar      1 MOL        -0.1621
      2 C2         -5.2340    3.1894    2.5455 C.ar      1 MOL        -0.0996
      3 C3         -4.3029    2.6820    4.7163 C.ar      1 MOL        -0.0996
      4 C4         -4.1287    2.5987    1.9333 C.ar      1 MOL        -0.1744
      5 C5         -3.1974    2.0913    4.1042 C.ar      1 MOL        -0.1744
      6 C6         -3.1163    2.0530    2.7159 C.ar      1 MOL         0.1358
      7 C7          1.8365    2.4176   -0.4704 C.3       1 MOL        -0.0948
      8 C8         -2.6465   -0.7913   -1.3974 C.3       1 MOL        -0.0948
      9 C9          0.3249    2.4998   -0.4716 C.3       1 MOL         0.1392
     10 C10        -1.9455   -0.1271   -0.2315 C.3       1 MOL         0.1392
     11 C11        -1.6086    1.9688    0.8331 C.3       1 MOL         0.5184
     12 O1         -2.0314    1.4740    2.1154 O.3       1 MOL        -0.3559
     13 O2         -0.1706    1.9379    0.7371 O.3       1 MOL        -0.4330
     14 O3         -2.2391    1.2639   -0.2461 O.3       1 MOL        -0.4330
     15 H1         -6.1827    3.6892    4.4139 H         1 MOL         0.1330
     16 H2         -6.0265    3.6175    1.9385 H         1 MOL         0.1325
     17 H3         -4.3710    2.7144    5.7998 H         1 MOL         0.1325
     18 H4         -4.0660    2.5701    0.8489 H         1 MOL         0.1458
     19 H5         -2.4072    1.6658    4.7166 H         1 MOL         0.1458
     20 H6          2.2511    2.8419   -1.3890 H         1 MOL         0.0461
     21 H7          2.2517    2.9571    0.3871 H         1 MOL         0.0461
     22 H8          2.1662    1.3771   -0.3817 H         1 MOL         0.0461
     23 H9         -2.4406   -1.8651   -1.4161 H         1 MOL         0.0461
     24 H10        -3.7291   -0.6399   -1.3339 H         1 MOL         0.0461
     25 H11        -2.3188   -0.3522   -2.3455 H         1 MOL         0.0461
     26 H12        -0.0892    1.9406   -1.3159 H         1 MOL         0.0361
     27 H13        -0.0030    3.5416   -0.5364 H         1 MOL         0.0361
     28 H14        -0.8622   -0.2595   -0.3092 H         1 MOL         0.0361
     29 H15        -2.2913   -0.5505    0.7162 H         1 MOL         0.0361
     30 H16        -1.8654    3.0342    0.7774 H         1 MOL         0.0782
@<TRIPOS>BOND
     1    1    2 ar
     2    1    3 ar
     3    2    4 ar
     4    3    5 ar
     5    4    6 ar
     6    5    6 ar
     7    6   12 1
     8    7    9 1
     9    8   10 1
    10    9   13 1
    11   10   14 1
    12   11   12 1
    13   11   13 1
    14   11   14 1
    15    1   15 1
    16    2   16 1
    17    3   17 1
    18    4   18 1
    19    5   19 1
    20    7   20 1
    21    7   21 1
    22    7   22 1
    23    8   23 1
    24    8   24 1
    25    8   25 1
    26    9   26 1
    27    9   27 1
    28   10   28 1
    29   10   29 1
    30   11   30 1
