@<TRIPOS>MOLECULE
ethanamide
    9     8     0     0     0
SMALL
USER_CHARGES

@<TRIPOS>ATOM
      1 C1         -1.1143   -1.7345    0.5269 C.2       1 MOL         0.6519
      2 C2          0.0085   -1.0706   -0.2216 C.3       1 MOL        -0.1697
      3 N1         -0.6961   -2.4994    1.5900 N.am      1 MOL        -0.6824
      4 O1         -2.2913   -1.5797    0.2102 O.2       1 MOL        -0.6112
      5 H1         -0.1375   -1.2227   -1.2946 H         1 MOL         0.0639
      6 H2          0.0000    0.0000    0.0000 H         1 MOL         0.0639
      7 H3          0.9824   -1.4823    0.0568 H         1 MOL         0.0639
      8 H4         -1.3939   -2.9793    2.1489 H         1 MOL         0.3099
      9 H5          0.2824   -2.6032    1.8382 H         1 MOL         0.3099
@<TRIPOS>BOND
     1    1    2 1
     2    1    3 am
     3    1    4 2
     4    2    5 1
     5    2    6 1
     6    2    7 1
     7    3    8 1
     8    3    9 1
