@<TRIPOS>MOLECULE
octafluorocyclobutane
   12    12     0     0     0
SMALL
USER_CHARGES

@<TRIPOS>ATOM
      1 C1          0.7740   -0.6330   -0.4490 C.3       1 MOL         0.3464
      2 C2          0.7840   -2.0790    0.0880 C.3       1 MOL         0.3463
      3 C3          0.3770   -1.2250   -1.8170 C.3       1 MOL         0.3464
      4 C4         -0.2080   -2.4240   -1.0430 C.3       1 MOL         0.3463
      5 F1         -0.1420    0.1880    0.1150 F         1 MOL        -0.1733
      6 F2          1.9580    0.0160   -0.4120 F         1 MOL        -0.1731
      7 F3          1.9780   -2.7130    0.0250 F         1 MOL        -0.1732
      8 F4          0.3200   -2.2420    1.3460 F         1 MOL        -0.1731
      9 F5         -0.5100   -0.5010   -2.5350 F         1 MOL        -0.1732
     10 F6          1.4070   -1.5160   -2.6440 F         1 MOL        -0.1733
     11 F7         -1.5170   -2.3350   -0.7230 F         1 MOL        -0.1731
     12 F8         -0.0270   -3.6330   -1.6240 F         1 MOL        -0.1732
@<TRIPOS>BOND
     1    1    2 1
     2    1    3 1
     3    1    5 1
     4    1    6 1
     5    2    4 1
     6    2    7 1
     7    2    8 1
     8    3    4 1
     9    3    9 1
    10    3   10 1
    11    4   11 1
    12    4   12 1
