@<TRIPOS>MOLECULE
2_chloroaniline
   14    14     0     0     0
SMALL
USER_CHARGES

@<TRIPOS>ATOM
      1 C1          1.8846   -1.0376   -0.1090 C.ar      1 MOL        -0.0876
      2 C2          0.8176   -0.4410    0.5626 C.ar      1 MOL        -0.1710
      3 C3          2.9348   -1.6038    0.6137 C.ar      1 MOL        -0.1916
      4 C4          0.8008   -0.4105    1.9570 C.ar      1 MOL        -0.0826
      5 C5          2.9180   -1.5734    2.0082 C.ar      1 MOL         0.1644
      6 C6          1.8509   -0.9767    2.6799 C.ar      1 MOL        -0.0539
      7 N1          3.9967   -2.1544    2.7123 N.pl3     1 MOL        -0.8299
      8 Cl1         1.7900   -0.9168    4.4052 Cl        1 MOL        -0.1058
      9 H1          1.8975   -1.0613   -1.1947 H         1 MOL         0.1331
     10 H2         -0.0001   -0.0003   -0.0001 H         1 MOL         0.1367
     11 H3          3.7608   -2.0655    0.0787 H         1 MOL         0.1356
     12 H4         -0.0383    0.0582    2.4651 H         1 MOL         0.1447
     13 H5          4.5495   -2.8536    2.2620 H         1 MOL         0.4039
     14 H6          4.1272   -1.9245    3.6753 H         1 MOL         0.4039
@<TRIPOS>BOND
     1    1    2 ar
     2    1    3 ar
     3    2    4 ar
     4    3    5 ar
     5    4    6 ar
     6    5    6 ar
     7    5    7 1
     8    6    8 1
     9    1    9 1
    10    2   10 1
    11    3   11 1
    12    4   12 1
    13    7   13 1
    14    7   14 1
