@<TRIPOS>MOLECULE
detet.xyz	      0.0000000
   22    21     0     0     0
SMALL
USER_CHARGES

@<TRIPOS>ATOM
      1 C1          0.0000    0.0000    0.0000 C.3       1 MOL        -0.0921
      2 C2          4.2933    0.8371    3.4121 C.3       1 MOL        -0.0928
      3 C3          3.5800    2.9881   -0.3632 C.3       1 MOL        -0.1150
      4 C4          1.5152    0.0000    0.0000 C.3       1 MOL         0.1456
      5 C5          3.6958    1.6847    2.3065 C.3       1 MOL         0.1424
      6 C6          3.3320    1.5211   -0.0656 C.3       1 MOL         0.3499
      7 O1          1.9582    1.3345    0.0000 O.3       1 MOL        -0.4482
      8 O2          3.9789    1.0577    1.0782 O.3       1 MOL        -0.4503
      9 H1         -0.3755   -1.0193   -0.0035 H         1 MOL         0.0396
     10 H2         -0.3816    0.5030    0.8821 H         1 MOL         0.0435
     11 H3         -0.3832    0.5120   -0.8760 H         1 MOL         0.0432
     12 H4          3.8536   -0.1545    3.4152 H         1 MOL         0.0412
     13 H5          4.1114    1.2980    4.3790 H         1 MOL         0.0384
     14 H6          5.3644    0.7333    3.2764 H         1 MOL         0.0433
     15 H7          3.0849    3.6252    0.3600 H         1 MOL         0.0493
     16 H8          3.1848    3.2265   -1.3439 H         1 MOL         0.0499
     17 H9          4.6446    3.1957   -0.3529 H         1 MOL         0.0519
     18 H10         1.8966   -0.5087   -0.8846 H         1 MOL         0.0182
     19 H11         1.9001   -0.5207    0.8713 H         1 MOL         0.0317
     20 H12         2.6228    1.7842    2.4371 H         1 MOL         0.0330
     21 H13         4.1302    2.6811    2.3264 H         1 MOL         0.0200
     22 H14         3.7453    0.9072   -0.8607 H         1 MOL         0.0573
@<TRIPOS>BOND
     1    1    4 1
     2    2    5 1
     3    3    6 1
     4    4    7 1
     5    5    8 1
     6    6    7 1
     7    6    8 1
     8    1    9 1
     9    1   10 1
    10    1   11 1
    11    2   12 1
    12    2   13 1
    13    2   14 1
    14    3   15 1
    15    3   16 1
    16    3   17 1
    17    4   18 1
    18    4   19 1
    19    5   20 1
    20    5   21 1
    21    6   22 1
