@<TRIPOS>MOLECULE
4_methoxyacetophenone
   21    21     0     0     0
SMALL
USER_CHARGES

@<TRIPOS>ATOM
      1 C1          0.8178   -0.4385    0.5644 C.ar      1 MOL        -0.0479
      2 C2          2.9371   -1.5972    0.6197 C.ar      1 MOL        -0.0479
      3 C3          0.7994   -0.4058    1.9588 C.ar      1 MOL        -0.1978
      4 C4          2.9185   -1.5646    2.0141 C.ar      1 MOL        -0.1978
      5 C5          1.8867   -1.0341   -0.1051 C.ar      1 MOL        -0.2137
      6 C6          1.8497   -0.9689    2.6836 C.ar      1 MOL         0.1544
      7 C7          1.9049   -1.0684   -1.5591 C.2       1 MOL         0.5770
      8 C8          0.7591   -0.4552   -2.3566 C.3       1 MOL        -0.1935
      9 C9          0.7071   -0.3159    4.6645 C.3       1 MOL         0.1154
     10 O1          2.8467   -1.5933   -2.1858 O.2       1 MOL        -0.5407
     11 O2          1.8310   -0.9388    4.0441 O.3       1 MOL        -0.3246
     12 H1         -0.0058    0.0036    0.0093 H         1 MOL         0.1470
     13 H2          3.7742   -2.0651    0.1078 H         1 MOL         0.1470
     14 H3         -0.0368    0.0583    2.4748 H         1 MOL         0.1478
     15 H4          3.7400   -2.0045    2.5730 H         1 MOL         0.1478
     16 H5          0.6977    0.6164   -2.1503 H         1 MOL         0.0626
     17 H6         -0.1781   -0.9577   -2.1036 H         1 MOL         0.0626
     18 H7          0.9314   -0.5840   -3.4298 H         1 MOL         0.0626
     19 H8         -0.1110   -1.0358    4.7448 H         1 MOL         0.0466
     20 H9          0.3921    0.5450    4.0695 H         1 MOL         0.0466
     21 H10         0.9936    0.0197    5.6640 H         1 MOL         0.0466
@<TRIPOS>BOND
     1    1    3 ar
     2    1    5 ar
     3    2    4 ar
     4    2    5 ar
     5    3    6 ar
     6    4    6 ar
     7    5    7 1
     8    6   11 1
     9    7    8 1
    10    7   10 2
    11    9   11 1
    12    1   12 1
    13    2   13 1
    14    3   14 1
    15    4   15 1
    16    8   16 1
    17    8   17 1
    18    8   18 1
    19    9   19 1
    20    9   20 1
    21    9   21 1
