@<TRIPOS>MOLECULE
p_dibromobenzene
   12    12     0     0     0
SMALL
USER_CHARGES

@<TRIPOS>ATOM
      1 C1          0.8178   -0.4385    0.5644 C.ar      1 MOL        -0.1042
      2 C2          0.7994   -0.4058    1.9588 C.ar      1 MOL        -0.1042
      3 C3          2.9371   -1.5972    0.6197 C.ar      1 MOL        -0.1042
      4 C4          2.9185   -1.5646    2.0141 C.ar      1 MOL        -0.1042
      5 C5          1.8867   -1.0341   -0.1051 C.ar      1 MOL        -0.0169
      6 C6          1.8497   -0.9689    2.6836 C.ar      1 MOL        -0.0169
      7 Br1         1.9120   -1.0782   -1.9943 Br        1 MOL        -0.0791
      8 Br2         1.8245   -0.9248    4.5728 Br        1 MOL        -0.0791
      9 H1         -0.0080    0.0045    0.0140 H         1 MOL         0.1522
     10 H2         -0.0405    0.0620    2.4657 H         1 MOL         0.1522
     11 H3          3.7770   -2.0649    0.1128 H         1 MOL         0.1522
     12 H4          3.7443   -2.0077    2.5644 H         1 MOL         0.1522
@<TRIPOS>BOND
     1    1    2 ar
     2    1    5 ar
     3    2    6 ar
     4    3    4 ar
     5    3    5 ar
     6    4    6 ar
     7    5    7 1
     8    6    8 1
     9    1    9 1
    10    2   10 1
    11    3   11 1
    12    4   12 1
