@<TRIPOS>MOLECULE
hept_1_ene
   21    20     0     0     0
SMALL
USER_CHARGES

@<TRIPOS>ATOM
      1 C1         -3.6720   -1.4198   -0.8263 C.2       1 MOL        -0.2247
      2 C2         -2.7765   -2.3792   -0.5673 C.2       1 MOL        -0.1640
      3 C3          0.7465   -3.8208    4.5458 C.3       1 MOL        -0.0896
      4 C4         -1.5981   -2.2028    0.3447 C.3       1 MOL        -0.0490
      5 C5         -0.4544   -3.9817    3.6273 C.3       1 MOL        -0.0778
      6 C6         -1.6082   -3.1713    1.5317 C.3       1 MOL        -0.0726
      7 C7         -0.4177   -2.9764    2.4757 C.3       1 MOL        -0.0774
      8 H1         -4.5098   -1.5909   -1.4930 H         1 MOL         0.1104
      9 H2         -3.5751   -0.4407   -0.3704 H         1 MOL         0.1104
     10 H3         -2.8941   -3.3460   -1.0499 H         1 MOL         0.1177
     11 H4          0.7717   -2.8191    4.9869 H         1 MOL         0.0316
     12 H5          1.6819   -3.9797    3.9999 H         1 MOL         0.0316
     13 H6          0.7007   -4.5497    5.3609 H         1 MOL         0.0316
     14 H7         -0.6885   -2.3782   -0.2426 H         1 MOL         0.0444
     15 H8         -1.5369   -1.1716    0.7134 H         1 MOL         0.0444
     16 H9         -1.3733   -3.8471    4.2098 H         1 MOL         0.0373
     17 H10        -0.4684   -5.0033    3.2302 H         1 MOL         0.0373
     18 H11        -1.5905   -4.1958    1.1394 H         1 MOL         0.0402
     19 H12        -2.5456   -3.0644    2.0920 H         1 MOL         0.0402
     20 H13        -0.4242   -1.9594    2.8846 H         1 MOL         0.0392
     21 H14         0.5178   -3.0948    1.9155 H         1 MOL         0.0392
@<TRIPOS>BOND
     1    1    2 2
     2    2    4 1
     3    3    5 1
     4    4    6 1
     5    5    7 1
     6    6    7 1
     7    1    8 1
     8    1    9 1
     9    2   10 1
    10    3   11 1
    11    3   12 1
    12    3   13 1
    13    4   14 1
    14    4   15 1
    15    5   16 1
    16    5   17 1
    17    6   18 1
    18    6   19 1
    19    7   20 1
    20    7   21 1
