@<TRIPOS>MOLECULE
2_methylpentan_3_ol
   21    20     0     0     0
SMALL
USER_CHARGES

@<TRIPOS>ATOM
      1 C1          3.2784    0.1292   -0.4291 C.3       1 MOL        -0.0902
      2 C2         -0.5382    1.5305    1.5085 C.3       1 MOL        -0.0870
      3 C3          0.8078    3.2558    2.7130 C.3       1 MOL        -0.0870
      4 C4          1.9819    0.8864   -0.1674 C.3       1 MOL        -0.1087
      5 C5          0.6961    2.4338    1.4237 C.3       1 MOL        -0.0857
      6 C6          2.0054    1.6542    1.1619 C.3       1 MOL         0.1445
      7 O1          3.1027    2.5655    1.1730 O.3       1 MOL        -0.6006
      8 H1          3.2405   -0.3507   -1.4125 H         1 MOL         0.0362
      9 H2          3.4429   -0.6540    0.3170 H         1 MOL         0.0362
     10 H3          4.1382    0.8064   -0.4160 H         1 MOL         0.0362
     11 H4         -0.7089    1.0005    0.5667 H         1 MOL         0.0356
     12 H5         -0.4414    0.7872    2.3066 H         1 MOL         0.0356
     13 H6         -1.4362    2.1239    1.7124 H         1 MOL         0.0356
     14 H7         -0.0877    3.8692    2.8595 H         1 MOL         0.0356
     15 H8          1.6682    3.9314    2.6696 H         1 MOL         0.0356
     16 H9          0.9224    2.6142    3.5932 H         1 MOL         0.0356
     17 H10         1.8137    1.5846   -0.9954 H         1 MOL         0.0436
     18 H11         1.1647    0.1564   -0.1712 H         1 MOL         0.0436
     19 H12         0.5444    3.1381    0.5954 H         1 MOL         0.0499
     20 H13         2.1569    0.9449    1.9854 H         1 MOL         0.0583
     21 H14         3.4602    2.5765    0.2720 H         1 MOL         0.3973
@<TRIPOS>BOND
     1    1    4 1
     2    2    5 1
     3    3    5 1
     4    4    6 1
     5    5    6 1
     6    6    7 1
     7    1    8 1
     8    1    9 1
     9    1   10 1
    10    2   11 1
    11    2   12 1
    12    2   13 1
    13    3   14 1
    14    3   15 1
    15    3   16 1
    16    4   17 1
    17    4   18 1
    18    5   19 1
    19    6   20 1
    20    7   21 1
