@<TRIPOS>MOLECULE
2_bromopropane
   11    10     0     0     0
SMALL
USER_CHARGES

@<TRIPOS>ATOM
      1 C1          0.7777   -0.6550    0.4066 C.3       1 MOL        -0.0948
      2 C2          1.2374    0.9192    2.3226 C.3       1 MOL        -0.0948
      3 C3          0.8743   -0.4978    1.9142 C.3       1 MOL         0.0260
      4 Br1         2.2421   -1.7220    2.5920 Br        1 MOL        -0.1978
      5 H1          0.5234   -1.6845    0.1318 H         1 MOL         0.0473
      6 H2          0.0000    0.0000    0.0000 H         1 MOL         0.0473
      7 H3          1.7224   -0.4034   -0.0884 H         1 MOL         0.0473
      8 H4          1.3098    1.0104    3.4120 H         1 MOL         0.0473
      9 H5          0.4754    1.6267    1.9791 H         1 MOL         0.0473
     10 H6          2.1995    1.2286    1.8992 H         1 MOL         0.0473
     11 H7         -0.0617   -0.8049    2.3911 H         1 MOL         0.0775
@<TRIPOS>BOND
     1    1    3 1
     2    2    3 1
     3    3    4 1
     4    1    5 1
     5    1    6 1
     6    1    7 1
     7    2    8 1
     8    2    9 1
     9    2   10 1
    10    3   11 1
