@<TRIPOS>MOLECULE
butyraldehyde
   13    12     0     0     0
SMALL
USER_CHARGES

@<TRIPOS>ATOM
      1 C1          2.7209    1.9254   -2.5423 C.2       1 MOL         0.5605
      2 C2         -0.0377   -0.3343   -1.0417 C.3       1 MOL        -0.0932
      3 C3          2.0587    0.9330   -1.6172 C.3       1 MOL        -0.1981
      4 C4          0.5947    0.6927   -1.9665 C.3       1 MOL        -0.0718
      5 O1          2.1550    2.5135   -3.4576 O.2       1 MOL        -0.5227
      6 H1          3.7919    2.1026   -2.3432 H         1 MOL        -0.0092
      7 H2          0.0000    0.0000   -0.0000 H         1 MOL         0.0360
      8 H3         -1.0870   -0.4910   -1.3103 H         1 MOL         0.0360
      9 H4          0.4787   -1.2969   -1.1129 H         1 MOL         0.0360
     10 H5          2.1501    1.3219   -0.5973 H         1 MOL         0.0675
     11 H6          2.6253   -0.0025   -1.6780 H         1 MOL         0.0675
     12 H7          0.0348    1.6332   -1.8999 H         1 MOL         0.0458
     13 H8          0.5092    0.3471   -3.0037 H         1 MOL         0.0458
@<TRIPOS>BOND
     1    1    3 1
     2    1    5 2
     3    2    4 1
     4    3    4 1
     5    1    6 1
     6    2    7 1
     7    2    8 1
     8    2    9 1
     9    3   10 1
    10    3   11 1
    11    4   12 1
    12    4   13 1
