@<TRIPOS>MOLECULE
1,2,3,4-tetrachloro-5-(3,4-dichlorophenyl)benzene
   22    23     0     0     0
SMALL
USER_CHARGES

@<TRIPOS>ATOM
      1 C1          1.8851   -1.0363   -0.1124 C.ar      1 MOL        -0.0979
      2 C2          0.8066   -0.4630    0.5610 C.ar      1 MOL        -0.1192
      3 C3          2.8783   -1.6520    2.0022 C.ar      1 MOL        -0.0946
      4 C4          5.1372   -1.4106   -0.3699 C.ar      1 MOL        -0.0984
      5 C5          2.9210   -1.6309    0.6081 C.ar      1 MOL        -0.0462
      6 C6          4.0396   -2.2249   -0.0913 C.ar      1 MOL        -0.0255
      7 C7          0.7638   -0.4841    1.9551 C.ar      1 MOL         0.0247
      8 C8          1.7997   -1.0786    2.6757 C.ar      1 MOL         0.0153
      9 C9          6.2412   -1.9342   -1.0428 C.ar      1 MOL         0.0201
     10 C10         4.0459   -3.5629   -0.4854 C.ar      1 MOL         0.0345
     11 C11         6.2475   -3.2722   -1.4369 C.ar      1 MOL         0.0252
     12 C12         5.1499   -4.0866   -1.1583 C.ar      1 MOL         0.0195
     13 Cl1        -0.5975    0.2459    2.7310 Cl        1 MOL        -0.0627
     14 Cl2         1.8049   -1.1324    4.4038 Cl        1 MOL        -0.0620
     15 Cl3         7.5635   -0.8611   -1.3526 Cl        1 MOL        -0.0513
     16 Cl4         2.6649   -4.5620   -0.1262 Cl        1 MOL        -0.0423
     17 Cl5         7.6317   -3.9110   -2.2776 Cl        1 MOL        -0.0351
     18 Cl6         5.1563   -5.7586   -1.6489 Cl        1 MOL        -0.0350
     19 H1          1.9031   -1.0140   -1.1996 H         1 MOL         0.1504
     20 H2          0.0077   -0.0047   -0.0169 H         1 MOL         0.1549
     21 H3          3.6868   -2.1175    2.5628 H         1 MOL         0.1595
     22 H4          5.1321   -0.3663   -0.0620 H         1 MOL         0.1662
@<TRIPOS>BOND
     1    1    2 ar
     2    1    5 ar
     3    2    7 ar
     4    3    5 ar
     5    3    8 ar
     6    4    6 ar
     7    4    9 ar
     8    5    6 1
     9    6   10 ar
    10    7    8 ar
    11    7   13 1
    12    8   14 1
    13    9   11 ar
    14    9   15 1
    15   10   12 ar
    16   10   16 1
    17   11   12 ar
    18   11   17 1
    19   12   18 1
    20    1   19 1
    21    2   20 1
    22    3   21 1
    23    4   22 1
