@<TRIPOS>MOLECULE
n_butylbenzene
   24    24     0     0     0
SMALL
USER_CHARGES

@<TRIPOS>ATOM
      1 C1          2.2024    2.6223   -6.6514 C.ar      1 MOL        -0.1338
      2 C2          2.4511    3.5728   -5.6614 C.ar      1 MOL        -0.1283
      3 C3          1.1514    1.7175   -6.5013 C.ar      1 MOL        -0.1283
      4 C4          1.6489    3.6185   -4.5212 C.ar      1 MOL        -0.1284
      5 C5          0.3491    1.7631   -5.3612 C.ar      1 MOL        -0.1284
      6 C6          0.6069    2.7132   -4.3840 C.ar      1 MOL        -0.0658
      7 C7         -0.0936    0.9869    0.2921 C.3       1 MOL        -0.0898
      8 C8         -0.2597    2.7626   -3.1517 C.3       1 MOL        -0.0451
      9 C9         -0.6141    1.9016   -0.8052 C.3       1 MOL        -0.0784
     10 C10         0.2915    1.8718   -2.0362 C.3       1 MOL        -0.0722
     11 H1          2.8271    2.5866   -7.5391 H         1 MOL         0.1299
     12 H2          3.2695    4.2770   -5.7781 H         1 MOL         0.1297
     13 H3          0.9580    0.9774   -7.2723 H         1 MOL         0.1297
     14 H4          1.8502    4.3624   -3.7549 H         1 MOL         0.1305
     15 H5         -0.4676    1.0544   -5.2529 H         1 MOL         0.1305
     16 H6          0.9063    1.2922    0.6163 H         1 MOL         0.0319
     17 H7         -0.0411   -0.0504   -0.0540 H         1 MOL         0.0319
     18 H8         -0.7580    1.0216    1.1611 H         1 MOL         0.0319
     19 H9         -0.3381    3.8003   -2.8033 H         1 MOL         0.0463
     20 H10        -1.2805    2.4548   -3.4120 H         1 MOL         0.0463
     21 H11        -0.6828    2.9248   -0.4179 H         1 MOL         0.0388
     22 H12        -1.6282    1.5899   -1.0815 H         1 MOL         0.0388
     23 H13         1.3000    2.2034   -1.7581 H         1 MOL         0.0411
     24 H14         0.3871    0.8395   -2.3964 H         1 MOL         0.0411
@<TRIPOS>BOND
     1    1    2 ar
     2    1    3 ar
     3    2    4 ar
     4    3    5 ar
     5    4    6 ar
     6    5    6 ar
     7    6    8 1
     8    7    9 1
     9    8   10 1
    10    9   10 1
    11    1   11 1
    12    2   12 1
    13    3   13 1
    14    4   14 1
    15    5   15 1
    16    7   16 1
    17    7   17 1
    18    7   18 1
    19    8   19 1
    20    8   20 1
    21    9   21 1
    22    9   22 1
    23   10   23 1
    24   10   24 1
