@<TRIPOS>MOLECULE
quinoline
   17    18     0     0     0
SMALL
USER_CHARGES

@<TRIPOS>ATOM
      1 C1          0.2061    2.0682   -0.5494 C.ar      1 MOL        -0.1269
      2 C2         -0.5109    0.8976   -0.3358 C.ar      1 MOL        -0.1239
      3 C3         -3.9129    4.2698   -1.8365 C.ar      1 MOL        -0.2500
      4 C4         -0.4592    3.2127   -0.9794 C.ar      1 MOL        -0.1115
      5 C5         -2.5420    4.3260   -1.6301 C.ar      1 MOL        -0.0800
      6 C6         -1.8908    0.8739   -0.5527 C.ar      1 MOL        -0.1645
      7 C7         -4.5450    3.0660   -1.6001 C.ar      1 MOL         0.4112
      8 C8         -1.8471    3.1885   -1.1974 C.ar      1 MOL        -0.1480
      9 C9         -2.5816    2.0035   -0.9827 C.ar      1 MOL         0.3934
     10 N1         -3.9119    1.9461   -1.1822 N.ar      1 MOL        -0.6569
     11 H1          1.2786    2.0904   -0.3825 H         1 MOL         0.1346
     12 H2          0.0004    0.0001   -0.0001 H         1 MOL         0.1355
     13 H3         -4.4661    5.1401   -2.1694 H         1 MOL         0.1438
     14 H4          0.1118    4.1240   -1.1433 H         1 MOL         0.1336
     15 H5         -2.0185    5.2624   -1.8091 H         1 MOL         0.1379
     16 H6         -2.4297   -0.0556   -0.3783 H         1 MOL         0.1504
     17 H7         -5.6153    2.9623   -1.7443 H         1 MOL         0.0217
@<TRIPOS>BOND
     1    1    2 ar
     2    1    4 ar
     3    2    6 ar
     4    3    5 ar
     5    3    7 ar
     6    4    8 ar
     7    5    8 ar
     8    6    9 ar
     9    7   10 ar
    10    8    9 ar
    11    9   10 ar
    12    1   11 1
    13    2   12 1
    14    3   13 1
    15    4   14 1
    16    5   15 1
    17    6   16 1
    18    7   17 1
