@<TRIPOS>MOLECULE
SAMPL4_032
   13    13     0     0     0
SMALL
USER_CHARGES

@<TRIPOS>ATOM
      1 C1          1.8850   -1.0360   -0.1120 C.ar      1 MOL        -0.1490
      2 C2          0.8070   -0.4630    0.5610 C.ar      1 MOL        -0.0840
      3 C3          2.8780   -1.6520    2.0020 C.ar      1 MOL        -0.2070
      4 C4          2.9210   -1.6310    0.6080 C.ar      1 MOL         0.1361
      5 C5          0.7640   -0.4840    1.9550 C.ar      1 MOL        -0.0196
      6 C6          1.8000   -1.0790    2.6760 C.ar      1 MOL         0.0574
      7 O1          3.9730   -2.1900   -0.0500 O.3       1 MOL        -0.4901
      8 Cl1        -0.5990    0.2430    2.7310 Cl        1 MOL        -0.0694
      9 Cl2         1.8040   -1.1370    4.4030 Cl        1 MOL        -0.0654
     10 H1          1.9130   -1.0170   -1.1990 H         1 MOL         0.1600
     11 H2          0.0080   -0.0040   -0.0160 H         1 MOL         0.1550
     12 H3          3.6920   -2.1180    2.5540 H         1 MOL         0.1530
     13 H4          4.6080   -2.5600    0.5850 H         1 MOL         0.4240
@<TRIPOS>BOND
     1    1    2 ar
     2    1    4 ar
     3    2    5 ar
     4    3    4 ar
     5    3    6 ar
     6    4    7 1
     7    5    6 ar
     8    5    8 1
     9    6    9 1
    10    1   10 1
    11    2   11 1
    12    3   12 1
    13    7   13 1
