@<TRIPOS>MOLECULE
4_methoxyaniline
   18    18     0     0     0
SMALL
USER_CHARGES

@<TRIPOS>ATOM
      1 C1          0.8178   -0.4385    0.5644 C.ar      1 MOL        -0.1567
      2 C2          2.9371   -1.5972    0.6197 C.ar      1 MOL        -0.1567
      3 C3          0.7994   -0.4058    1.9588 C.ar      1 MOL        -0.1425
      4 C4          2.9185   -1.5646    2.0141 C.ar      1 MOL        -0.1425
      5 C5          1.8867   -1.0341   -0.1051 C.ar      1 MOL         0.1024
      6 C6          1.8497   -0.9689    2.6836 C.ar      1 MOL         0.0833
      7 C7          0.7085   -0.3130    4.6643 C.3       1 MOL         0.1186
      8 N1          1.9052   -1.0664   -1.5150 N.pl3     1 MOL        -0.8142
      9 O1          1.8316   -0.9373    4.0441 O.3       1 MOL        -0.3300
     10 H1         -0.0063    0.0028    0.0096 H         1 MOL         0.1332
     11 H2          3.7753   -2.0632    0.1079 H         1 MOL         0.1332
     12 H3         -0.0358    0.0597    2.4747 H         1 MOL         0.1417
     13 H4          3.7403   -2.0039    2.5735 H         1 MOL         0.1417
     14 H5         -0.1097   -1.0325    4.7469 H         1 MOL         0.0408
     15 H6          0.3931    0.5468    4.0679 H         1 MOL         0.0408
     16 H7          0.9960    0.0246    5.6629 H         1 MOL         0.0408
     17 H8          1.1739   -0.6115   -2.0231 H         1 MOL         0.3830
     18 H9          2.5942   -1.6215   -1.9810 H         1 MOL         0.3830
@<TRIPOS>BOND
     1    1    3 ar
     2    1    5 ar
     3    2    4 ar
     4    2    5 ar
     5    3    6 ar
     6    4    6 ar
     7    5    8 1
     8    6    9 1
     9    7    9 1
    10    1   10 1
    11    2   11 1
    12    3   12 1
    13    4   13 1
    14    7   14 1
    15    7   15 1
    16    7   16 1
    17    8   17 1
    18    8   18 1
