@<TRIPOS>MOLECULE
1_naphthol
   19    20     0     0     0
SMALL
USER_CHARGES

@<TRIPOS>ATOM
      1 C1         -0.5682   -2.0626    0.2276 C.ar      1 MOL        -0.1182
      2 C2          0.3420   -1.0307    0.0184 C.ar      1 MOL        -0.1341
      3 C3          3.0392   -5.3112   -0.1006 C.ar      1 MOL        -0.0903
      4 C4         -0.1295   -3.3868    0.2509 C.ar      1 MOL        -0.1245
      5 C5          1.6942   -1.3191   -0.1681 C.ar      1 MOL        -0.1064
      6 C6          1.6869   -5.0226    0.0857 C.ar      1 MOL        -0.1544
      7 C7          3.9495   -4.2793   -0.3094 C.ar      1 MOL        -0.1991
      8 C8          1.2279   -3.6954    0.0653 C.ar      1 MOL        -0.0083
      9 C9          2.1534   -2.6461   -0.1474 C.ar      1 MOL        -0.0715
     10 C10         3.5108   -2.9550   -0.3332 C.ar      1 MOL         0.1384
     11 O1          4.4405   -1.9761   -0.5409 O.3       1 MOL        -0.4996
     12 H1         -1.6206   -1.8369    0.3724 H         1 MOL         0.1330
     13 H2         -0.0004   -0.0001    0.0005 H         1 MOL         0.1337
     14 H3          3.3808   -6.3420   -0.0812 H         1 MOL         0.1338
     15 H4         -0.8586   -4.1773    0.4167 H         1 MOL         0.1344
     16 H5          2.3787   -0.4893   -0.3307 H         1 MOL         0.1352
     17 H6          0.9927   -5.8450    0.2466 H         1 MOL         0.1345
     18 H7          5.0010   -4.5125   -0.4540 H         1 MOL         0.1423
     19 H8          4.6431   -1.5549    0.3126 H         1 MOL         0.4212
@<TRIPOS>BOND
     1    1    2 ar
     2    1    4 ar
     3    2    5 ar
     4    3    6 ar
     5    3    7 ar
     6    4    8 ar
     7    5    9 ar
     8    6    8 ar
     9    7   10 ar
    10    8    9 ar
    11    9   10 ar
    12   10   11 1
    13    1   12 1
    14    2   13 1
    15    3   14 1
    16    4   15 1
    17    5   16 1
    18    6   17 1
    19    7   18 1
    20   11   19 1
