@<TRIPOS>MOLECULE
di_n_butylamine
   28    27     0     0     0
SMALL
USER_CHARGES

@<TRIPOS>ATOM
      1 C1          3.4276    0.0979   -2.2479 C.3       1 MOL        -0.0899
      2 C2         -3.4350    6.3892   -5.7324 C.3       1 MOL        -0.0899
      3 C3          2.6489    1.3742   -1.9715 C.3       1 MOL        -0.0754
      4 C4         -2.5368    6.0484   -4.5540 C.3       1 MOL        -0.0754
      5 C5          1.7006    1.7126   -3.1223 C.3       1 MOL        -0.0784
      6 C6         -1.6916    4.8053   -4.8344 C.3       1 MOL        -0.0784
      7 C7          0.8962    2.9762   -2.8215 C.3       1 MOL         0.1714
      8 C8         -0.7664    4.4903   -3.6603 C.3       1 MOL         0.1714
      9 N1          0.0140    3.2929   -3.9383 N.3       1 MOL        -0.8332
     10 H1          4.0995   -0.1245   -1.4130 H         1 MOL         0.0317
     11 H2          2.7521   -0.7537   -2.3769 H         1 MOL         0.0317
     12 H3          4.0336    0.1966   -3.1544 H         1 MOL         0.0317
     13 H4         -4.0304    7.2802   -5.5099 H         1 MOL         0.0317
     14 H5         -2.8435    6.5912   -6.6310 H         1 MOL         0.0317
     15 H6         -4.1236    5.5668   -5.9516 H         1 MOL         0.0317
     16 H7          2.0793    1.2537   -1.0427 H         1 MOL         0.0401
     17 H8          3.3541    2.1988   -1.8154 H         1 MOL         0.0401
     18 H9         -1.8835    6.9025   -4.3410 H         1 MOL         0.0401
     19 H10        -3.1569    5.8842   -3.6650 H         1 MOL         0.0401
     20 H11         2.2796    1.8517   -4.0442 H         1 MOL         0.0418
     21 H12         1.0194    0.8693   -3.2937 H         1 MOL         0.0418
     22 H13        -2.3520    3.9501   -5.0266 H         1 MOL         0.0418
     23 H14        -1.0984    4.9651   -5.7438 H         1 MOL         0.0418
     24 H15         0.2978    2.8375   -1.9144 H         1 MOL         0.0256
     25 H16         1.5717    3.8209   -2.6499 H         1 MOL         0.0256
     26 H17        -0.0883    5.3307   -3.4760 H         1 MOL         0.0256
     27 H18        -1.3539    4.3297   -2.7501 H         1 MOL         0.0256
     28 H19         0.5757    3.4441   -4.7752 H         1 MOL         0.3574
@<TRIPOS>BOND
     1    1    3 1
     2    2    4 1
     3    3    5 1
     4    4    6 1
     5    5    7 1
     6    6    8 1
     7    7    9 1
     8    8    9 1
     9    1   10 1
    10    1   11 1
    11    1   12 1
    12    2   13 1
    13    2   14 1
    14    2   15 1
    15    3   16 1
    16    3   17 1
    17    4   18 1
    18    4   19 1
    19    5   20 1
    20    5   21 1
    21    6   22 1
    22    6   23 1
    23    7   24 1
    24    7   25 1
    25    8   26 1
    26    8   27 1
    27    9   28 1
