@<TRIPOS>MOLECULE
tetrachloroethene
    6     5     0     0     0
SMALL
USER_CHARGES

@<TRIPOS>ATOM
      1 C1         -0.4039   -1.2802    0.0582 C.2       1 MOL         0.0616
      2 C2          0.0000    0.0000    0.0000 C.2       1 MOL         0.0616
      3 Cl1         0.7103   -2.6126    0.0522 Cl        1 MOL        -0.0308
      4 Cl2        -2.0801   -1.7280    0.1450 Cl        1 MOL        -0.0308
      5 Cl3        -1.1145    1.3324    0.0058 Cl        1 MOL        -0.0308
      6 Cl4         1.6760    0.4479   -0.0865 Cl        1 MOL        -0.0308
@<TRIPOS>BOND
     1    1    2 2
     2    1    3 1
     3    1    4 1
     4    2    5 1
     5    2    6 1
