@<TRIPOS>MOLECULE
26_dimethylphenol
   19    19     0     0     0
SMALL
USER_CHARGES

@<TRIPOS>ATOM
      1 C1          1.8846   -1.0376   -0.1090 C.ar      1 MOL        -0.1585
      2 C2          0.8176   -0.4410    0.5626 C.ar      1 MOL        -0.1007
      3 C3          2.9348   -1.6038    0.6137 C.ar      1 MOL        -0.1007
      4 C4          0.8008   -0.4105    1.9570 C.ar      1 MOL        -0.1170
      5 C5          2.9180   -1.5734    2.0082 C.ar      1 MOL        -0.1170
      6 C6          1.8509   -0.9767    2.6799 C.ar      1 MOL         0.1221
      7 C7         -0.3507    0.2322    2.6577 C.3       1 MOL        -0.0548
      8 C8          4.0507   -2.1859    2.7641 C.3       1 MOL        -0.0548
      9 O1          1.8341   -0.9476    4.0435 O.3       1 MOL        -0.5007
     10 H1          1.8976   -1.0618   -1.1944 H         1 MOL         0.1324
     11 H2          0.0041   -0.0027   -0.0092 H         1 MOL         0.1323
     12 H3          3.7610   -2.0673    0.0814 H         1 MOL         0.1323
     13 H4         -0.2943    0.0411    3.7357 H         1 MOL         0.0442
     14 H5         -0.3585    1.3171    2.4951 H         1 MOL         0.0442
     15 H6         -1.3075   -0.1533    2.2840 H         1 MOL         0.0442
     16 H7          4.5558   -1.4270    3.3731 H         1 MOL         0.0442
     17 H8          3.6989   -2.9873    3.4255 H         1 MOL         0.0442
     18 H9          4.7856   -2.6336    2.0834 H         1 MOL         0.0442
     19 H10         1.1790   -0.2881    4.3334 H         1 MOL         0.4197
@<TRIPOS>BOND
     1    1    2 ar
     2    1    3 ar
     3    2    4 ar
     4    3    5 ar
     5    4    6 ar
     6    4    7 1
     7    5    6 ar
     8    5    8 1
     9    6    9 1
    10    1   10 1
    11    2   11 1
    12    3   12 1
    13    7   13 1
    14    7   14 1
    15    7   15 1
    16    8   16 1
    17    8   17 1
    18    8   18 1
    19    9   19 1
