@<TRIPOS>MOLECULE
diethyl_sulfide
   15    14     0     0     0
SMALL
USER_CHARGES

@<TRIPOS>ATOM
      1 C1          0.5033   -0.3033    1.1381 C.3       1 MOL        -0.0876
      2 C2          5.4936    0.2991   -0.8463 C.3       1 MOL        -0.0876
      3 C3          1.8518   -0.8681    0.7340 C.3       1 MOL        -0.0080
      4 C4          4.3832   -0.5607   -0.2730 C.3       1 MOL        -0.0080
      5 S1          2.9258    0.4446    0.0921 S.3       1 MOL        -0.3154
      6 H1          0.6029    0.4491    1.9278 H         1 MOL         0.0416
      7 H2         -0.0141    0.1517    0.2867 H         1 MOL         0.0416
      8 H3         -0.1358   -1.1046    1.5239 H         1 MOL         0.0416
      9 H4          5.1881    0.7788   -1.7823 H         1 MOL         0.0416
     10 H5          5.8048    1.0774   -0.1413 H         1 MOL         0.0416
     11 H6          6.3701   -0.3205   -1.0633 H         1 MOL         0.0416
     12 H7          1.7267   -1.6313   -0.0402 H         1 MOL         0.0643
     13 H8          2.3409   -1.3340    1.5948 H         1 MOL         0.0643
     14 H9          4.7169   -1.0457    0.6494 H         1 MOL         0.0643
     15 H10         4.1025   -1.3421   -0.9856 H         1 MOL         0.0643
@<TRIPOS>BOND
     1    1    3 1
     2    2    4 1
     3    3    5 1
     4    4    5 1
     5    1    6 1
     6    1    7 1
     7    1    8 1
     8    2    9 1
     9    2   10 1
    10    2   11 1
    11    3   12 1
    12    3   13 1
    13    4   14 1
    14    4   15 1
