@<TRIPOS>MOLECULE
NN_dimethyl_p_methoxybenzamide
   26    26     0     0     0
SMALL
USER_CHARGES

@<TRIPOS>ATOM
      1 C1          0.8447   -0.3260    0.5965 C.ar      1 MOL        -0.0628
      2 C2          2.9580   -1.4944    0.6725 C.ar      1 MOL        -0.0628
      3 C3          0.8410   -0.2424    1.9890 C.ar      1 MOL        -0.1869
      4 C4          2.9542   -1.4108    2.0649 C.ar      1 MOL        -0.1869
      5 C5          1.9032   -0.9520   -0.0616 C.ar      1 MOL        -0.1678
      6 C6          1.8957   -0.7848    2.7231 C.ar      1 MOL         0.1403
      7 C7          1.9060   -1.0394   -1.5135 C.2       1 MOL         0.6750
      8 C8          2.5602   -0.0286   -3.7114 C.3       1 MOL         0.0846
      9 C9          3.1079    1.1624   -1.6185 C.3       1 MOL         0.0846
     10 C10         0.7775   -0.0532    4.6904 C.3       1 MOL         0.1159
     11 N1          2.5037   -0.0051   -2.2566 N.am      1 MOL        -0.4831
     12 O1          1.3843   -2.0433   -2.0165 O.2       1 MOL        -0.5958
     13 O2          1.8914   -0.7049    4.0817 O.3       1 MOL        -0.3260
     14 H1          0.0177    0.1003    0.0341 H         1 MOL         0.1450
     15 H2          3.7871   -1.9855    0.1695 H         1 MOL         0.1450
     16 H3          0.0128    0.2452    2.4962 H         1 MOL         0.1479
     17 H4          3.7790   -1.8348    2.6311 H         1 MOL         0.1479
     18 H5          3.5875    0.1668   -4.0257 H         1 MOL         0.0415
     19 H6          1.8935    0.7433   -4.1022 H         1 MOL         0.0415
     20 H7          2.2398   -1.0124   -4.0608 H         1 MOL         0.0415
     21 H8          2.3418    1.6808   -1.0384 H         1 MOL         0.0415
     22 H9          3.5039    1.8219   -2.3938 H         1 MOL         0.0415
     23 H10         3.9148    0.8278   -0.9631 H         1 MOL         0.0415
     24 H11        -0.0437   -0.7649    4.8054 H         1 MOL         0.0457
     25 H12         0.4610    0.7872    4.0675 H         1 MOL         0.0457
     26 H13         1.0762    0.3170    5.6739 H         1 MOL         0.0457
@<TRIPOS>BOND
     1    1    3 ar
     2    1    5 ar
     3    2    4 ar
     4    2    5 ar
     5    3    6 ar
     6    4    6 ar
     7    5    7 1
     8    6   13 1
     9    7   11 am
    10    7   12 2
    11    8   11 1
    12    9   11 1
    13   10   13 1
    14    1   14 1
    15    2   15 1
    16    3   16 1
    17    4   17 1
    18    8   18 1
    19    8   19 1
    20    8   20 1
    21    9   21 1
    22    9   22 1
    23    9   23 1
    24   10   24 1
    25   10   25 1
    26   10   26 1
