@<TRIPOS>MOLECULE
5-bromouracil
   12    12     0     0     0
SMALL
USER_CHARGES

@<TRIPOS>ATOM
      1 C1         -1.2200    0.5240    1.5610 C.2       1 MOL         0.0814
      2 C2         -2.1940    0.1880    2.4140 C.2       1 MOL        -0.2471
      3 C3         -2.7820   -1.1800    2.3230 C.2       1 MOL         0.7285
      4 C4         -1.2180   -1.6240    0.4410 C.2       1 MOL         0.8035
      5 N1         -0.7410   -0.3340    0.6090 N.am      1 MOL        -0.4659
      6 N2         -2.2350   -1.9830    1.3280 N.am      1 MOL        -0.5831
      7 O1         -3.6780   -1.5570    3.0740 O.2       1 MOL        -0.5816
      8 O2         -0.7830   -2.3920   -0.4180 O.2       1 MOL        -0.6262
      9 Br1        -2.8430    1.3570    3.7080 Br        1 MOL        -0.0029
     10 H1         -0.7470    1.5000    1.5690 H         1 MOL         0.1750
     11 H2         -0.0000   -0.0090   -0.0050 H         1 MOL         0.3593
     12 H3         -2.6120   -2.9220    1.2370 H         1 MOL         0.3589
@<TRIPOS>BOND
     1    1    2 2
     2    1    5 1
     3    2    3 1
     4    2    9 1
     5    3    6 am
     6    3    7 2
     7    4    5 am
     8    4    6 am
     9    4    8 2
    10    1   10 1
    11    5   11 1
    12    6   12 1
