@<TRIPOS>MOLECULE
N_methylacetamide
   12    11     0     0     0
SMALL
USER_CHARGES

@<TRIPOS>ATOM
      1 C1          1.2718   -0.8050    1.5134 C.2       1 MOL         0.6526
      2 C2          0.1409    0.0891    1.0806 C.3       1 MOL        -0.1705
      3 C3          1.8252   -3.2057    1.8648 C.3       1 MOL         0.0836
      4 N1          0.9132   -2.1421    1.5109 N.am      1 MOL        -0.5833
      5 O1          2.3768   -0.3562    1.8069 O.2       1 MOL        -0.6076
      6 H1          0.3773    1.1276    1.3290 H         1 MOL         0.0639
      7 H2          0.0000    0.0000    0.0000 H         1 MOL         0.0639
      8 H3         -0.7842   -0.1901    1.5931 H         1 MOL         0.0639
      9 H4          1.8142   -3.3308    2.9494 H         1 MOL         0.0423
     10 H5          2.8283   -2.9365    1.5269 H         1 MOL         0.0423
     11 H6          1.4996   -4.1264    1.3760 H         1 MOL         0.0423
     12 H7         -0.0367   -2.3874    1.2477 H         1 MOL         0.3070
@<TRIPOS>BOND
     1    1    2 1
     2    1    4 am
     3    1    5 2
     4    3    4 1
     5    2    6 1
     6    2    7 1
     7    2    8 1
     8    3    9 1
     9    3   10 1
    10    3   11 1
    11    4   12 1
