@<TRIPOS>MOLECULE
ZINC01698513
   17    16     0     0     0
SMALL
NO_CHARGES

@<TRIPOS>ATOM
      1 C1         -5.0440   -7.2750   -3.2750 C.3       1 MOL         0.0000
      2 C2         -5.2060   -6.2520   -2.1620 C.3       1 MOL         0.0000
      3 C3         -3.8950   -6.0350   -1.4060 C.3       1 MOL         0.0000
      4 C4         -4.0620   -5.0060   -0.2890 C.3       1 MOL         0.0000
      5 C5         -2.7600   -4.7870    0.4660 C.3       1 MOL         0.0000
      6 H1         -5.9930   -7.4150   -3.8020 H         1 MOL         0.0000
      7 H2         -4.2960   -6.9480   -4.0040 H         1 MOL         0.0000
      8 H3         -4.7330   -8.2450   -2.8740 H         1 MOL         0.0000
      9 H4         -5.5490   -5.3040   -2.5930 H         1 MOL         0.0000
     10 H5         -5.9830   -6.5940   -1.4700 H         1 MOL         0.0000
     11 H6         -3.5540   -6.9870   -0.9810 H         1 MOL         0.0000
     12 H7         -3.1190   -5.6970   -2.1050 H         1 MOL         0.0000
     13 H8         -4.3980   -4.0510   -0.7090 H         1 MOL         0.0000
     14 H9         -4.8330   -5.3410    0.4140 H         1 MOL         0.0000
     15 H10        -2.9020   -4.0480    1.2600 H         1 MOL         0.0000
     16 H11        -2.4120   -5.7170    0.9260 H         1 MOL         0.0000
     17 H12        -1.9750   -4.4200   -0.2030 H         1 MOL         0.0000
@<TRIPOS>BOND
     1    1    2 1
     2    1    6 1
     3    1    7 1
     4    1    8 1
     5    2    3 1
     6    2    9 1
     7    2   10 1
     8    3    4 1
     9    3   11 1
    10    3   12 1
    11    4    5 1
    12    4   13 1
    13    4   14 1
    14    5   15 1
    15    5   16 1
    16    5   17 1
