@<TRIPOS>MOLECULE
methyl_trifluoroacetate
   11    10     0     0     0
SMALL
USER_CHARGES

@<TRIPOS>ATOM
      1 C1          0.1400   -1.0129    2.4552 C.2       1 MOL         0.5897
      2 C2         -0.4486   -0.9868    0.1664 C.3       1 MOL         0.1261
      3 C3         -0.4290   -1.1781    3.8267 C.3       1 MOL         0.6241
      4 O1          1.3259   -0.8196    2.2247 O.2       1 MOL        -0.4678
      5 O2         -0.8571   -1.1186    1.5318 O.3       1 MOL        -0.4052
      6 F1         -1.7694   -1.3875    3.8018 F         1 MOL        -0.2180
      7 F2          0.1220   -2.2316    4.4808 F         1 MOL        -0.2180
      8 F3         -0.2161   -0.0810    4.5963 F         1 MOL        -0.2180
      9 H1          0.2584   -0.1585    0.0751 H         1 MOL         0.0624
     10 H2         -1.3245   -0.8029   -0.4608 H         1 MOL         0.0624
     11 H3          0.0362   -1.9132   -0.1507 H         1 MOL         0.0624
@<TRIPOS>BOND
     1    1    3 1
     2    1    4 2
     3    1    5 1
     4    2    5 1
     5    3    6 1
     6    3    7 1
     7    3    8 1
     8    2    9 1
     9    2   10 1
    10    2   11 1
