@<TRIPOS>MOLECULE
23_dimethylbutane
   20    19     0     0     0
SMALL
USER_CHARGES

@<TRIPOS>ATOM
      1 C1          0.5108   -0.7952    0.5544 C.3       1 MOL        -0.0865
      2 C2          0.2493    0.5315    2.6603 C.3       1 MOL        -0.0865
      3 C3          1.2273   -2.3856    3.1709 C.3       1 MOL        -0.0865
      4 C4          3.2006   -1.8542    1.7262 C.3       1 MOL        -0.0865
      5 C5          1.2455   -0.2135    1.7653 C.3       1 MOL        -0.0612
      6 C6          2.0681   -1.2569    2.5683 C.3       1 MOL        -0.0612
      7 H1         -0.2471   -1.5264    0.8518 H         1 MOL         0.0322
      8 H2          0.0000    0.0000   -0.0000 H         1 MOL         0.0322
      9 H3          1.2025   -1.2797   -0.1406 H         1 MOL         0.0322
     10 H4         -0.2113    1.3612    2.1127 H         1 MOL         0.0322
     11 H5         -0.5571   -0.1227    3.0058 H         1 MOL         0.0322
     12 H6          0.7505    0.9525    3.5379 H         1 MOL         0.0322
     13 H7          0.4483   -1.9966    3.8329 H         1 MOL         0.0322
     14 H8          0.7494   -2.9943    2.3969 H         1 MOL         0.0322
     15 H9          1.8574   -3.0526    3.7703 H         1 MOL         0.0322
     16 H10         2.8192   -2.4901    0.9210 H         1 MOL         0.0322
     17 H11         3.8574   -2.4706    2.3500 H         1 MOL         0.0322
     18 H12         3.8143   -1.0649    1.2798 H         1 MOL         0.0322
     19 H13         1.9519    0.5380    1.3867 H         1 MOL         0.0413
     20 H14         2.5440   -0.7248    3.4034 H         1 MOL         0.0413
@<TRIPOS>BOND
     1    1    5 1
     2    2    5 1
     3    3    6 1
     4    4    6 1
     5    5    6 1
     6    1    7 1
     7    1    8 1
     8    1    9 1
     9    2   10 1
    10    2   11 1
    11    2   12 1
    12    3   13 1
    13    3   14 1
    14    3   15 1
    15    4   16 1
    16    4   17 1
    17    4   18 1
    18    5   19 1
    19    6   20 1
