@<TRIPOS>MOLECULE
24_dimethylphenol
   19    19     0     0     0
SMALL
USER_CHARGES

@<TRIPOS>ATOM
      1 C1          0.8178   -0.4385    0.5644 C.ar      1 MOL        -0.0978
      2 C2          0.7994   -0.4058    1.9588 C.ar      1 MOL        -0.2057
      3 C3          2.9371   -1.5972    0.6197 C.ar      1 MOL        -0.1009
      4 C4          1.8867   -1.0341   -0.1051 C.ar      1 MOL        -0.0982
      5 C5          2.9185   -1.5646    2.0141 C.ar      1 MOL        -0.0857
      6 C6          1.8497   -0.9689    2.6836 C.ar      1 MOL         0.1152
      7 C7          1.9060   -1.0689   -1.5959 C.3       1 MOL        -0.0548
      8 C8          4.0517   -2.1708    2.7740 C.3       1 MOL        -0.0489
      9 O1          1.8160   -0.9286    4.0450 O.3       1 MOL        -0.4992
     10 H1         -0.0052    0.0021    0.0079 H         1 MOL         0.1320
     11 H2         -0.0364    0.0595    2.4743 H         1 MOL         0.1317
     12 H3          3.7703   -2.0610    0.0970 H         1 MOL         0.1340
     13 H4          2.1006   -2.0880   -1.9518 H         1 MOL         0.0412
     14 H5          0.9493   -0.7308   -2.0149 H         1 MOL         0.0412
     15 H6          2.6817   -0.4052   -1.9999 H         1 MOL         0.0412
     16 H7          4.5551   -1.4079    3.3793 H         1 MOL         0.0456
     17 H8          3.7010   -2.9694    3.4396 H         1 MOL         0.0456
     18 H9          4.7881   -2.6210    2.0964 H         1 MOL         0.0456
     19 H10         1.1580   -0.2660    4.3228 H         1 MOL         0.4176
@<TRIPOS>BOND
     1    1    2 ar
     2    1    4 ar
     3    2    6 ar
     4    3    4 ar
     5    3    5 ar
     6    4    7 1
     7    5    6 ar
     8    5    8 1
     9    6    9 1
    10    1   10 1
    11    2   11 1
    12    3   12 1
    13    7   13 1
    14    7   14 1
    15    7   15 1
    16    8   16 1
    17    8   17 1
    18    8   18 1
    19    9   19 1
