@<TRIPOS>MOLECULE
CUP08032_AM1BCC_v1_0
   24    24     0     0     0
SMALL
USER_CHARGES

@<TRIPOS>ATOM
      1 C1          7.9879   -0.8589   -2.3971 C.ar      1 MOL        -0.1531
      2 C2          7.6607    0.4901   -2.2893 C.ar      1 MOL        -0.1085
      3 C3          7.0970   -1.8252   -1.9358 C.ar      1 MOL        -0.1085
      4 C4          6.4407    0.8699   -1.7234 C.ar      1 MOL        -0.1597
      5 C5          5.8762   -1.4449   -1.3690 C.ar      1 MOL        -0.1597
      6 C6          5.5341   -0.0953   -1.2662 C.ar      1 MOL         0.0643
      7 C7          3.2102   -0.3757   -0.3914 C.2       1 MOL         0.7553
      8 C8          0.9897   -0.3535    0.5897 C.3       1 MOL         0.0721
      9 C9          2.5785    1.3857    1.2896 C.3       1 MOL         0.0721
     10 N1          4.3319    0.3650   -0.6915 N.am      1 MOL        -0.4585
     11 N2          2.2477    0.3309    0.3400 N.am      1 MOL        -0.4611
     12 O1          3.0237   -1.5375   -0.7434 O.2       1 MOL        -0.6196
     13 H1          8.9352   -1.1584   -2.8375 H         1 MOL         0.1322
     14 H2          8.3542    1.2472   -2.6455 H         1 MOL         0.1323
     15 H3          7.3479   -2.8800   -2.0133 H         1 MOL         0.1323
     16 H4          6.2099    1.9289   -1.6496 H         1 MOL         0.1482
     17 H5          5.2135   -2.2264   -1.0094 H         1 MOL         0.1482
     18 H6          1.0983   -0.9839    1.4774 H         1 MOL         0.0437
     19 H7          0.7093   -0.9806   -0.2618 H         1 MOL         0.0437
     20 H8          0.2002    0.3858    0.7531 H         1 MOL         0.0437
     21 H9          1.7788    2.1319    1.2821 H         1 MOL         0.0437
     22 H10         3.5256    1.8813    1.0716 H         1 MOL         0.0437
     23 H11         2.6535    0.9410    2.2872 H         1 MOL         0.0437
     24 H12         4.1813    1.3605   -0.7221 H         1 MOL         0.3091
@<TRIPOS>BOND
     1    1    2 ar
     2    1    3 ar
     3    2    4 ar
     4    3    5 ar
     5    4    6 ar
     6    5    6 ar
     7    6   10 1
     8    7   10 am
     9    7   11 am
    10    7   12 2
    11    8   11 1
    12    9   11 1
    13    1   13 1
    14    2   14 1
    15    3   15 1
    16    4   16 1
    17    5   17 1
    18    8   18 1
    19    8   19 1
    20    8   20 1
    21    9   21 1
    22    9   22 1
    23    9   23 1
    24   10   24 1
