@<TRIPOS>MOLECULE
diisopropyl_ether
   21    20     0     0     0
SMALL
USER_CHARGES

@<TRIPOS>ATOM
      1 C1          0.2247   -0.0420    1.7545 C.3       1 MOL        -0.1042
      2 C2          2.1168    0.4790    0.1733 C.3       1 MOL        -0.1042
      3 C3          1.5259    4.4509    0.6852 C.3       1 MOL        -0.1042
      4 C4          1.5304    3.5647    3.0445 C.3       1 MOL        -0.1042
      5 C5          1.3532    0.9191    1.4130 C.3       1 MOL         0.1410
      6 C6          1.7303    3.2332    1.5735 C.3       1 MOL         0.1410
      7 O1          0.8123    2.2184    1.1940 O.3       1 MOL        -0.4254
      8 H1          0.6070   -1.0468    1.9586 H         1 MOL         0.0411
      9 H2         -0.3221    0.3102    2.6357 H         1 MOL         0.0411
     10 H3         -0.5024   -0.1029    0.9372 H         1 MOL         0.0411
     11 H4          2.5713   -0.5062    0.3155 H         1 MOL         0.0411
     12 H5          2.9081    1.1987   -0.0624 H         1 MOL         0.0411
     13 H6          1.4583    0.4381   -0.7014 H         1 MOL         0.0411
     14 H7          2.2378    5.2450    0.9299 H         1 MOL         0.0411
     15 H8          1.6527    4.1795   -0.3684 H         1 MOL         0.0411
     16 H9          0.5096    4.8475    0.7872 H         1 MOL         0.0411
     17 H10         2.2415    4.3256    3.3805 H         1 MOL         0.0411
     18 H11         1.6616    2.6674    3.6587 H         1 MOL         0.0411
     19 H12         0.5139    3.9281    3.2319 H         1 MOL         0.0411
     20 H13         2.0424    0.9895    2.2609 H         1 MOL         0.0334
     21 H14         2.7393    2.8358    1.4223 H         1 MOL         0.0334
@<TRIPOS>BOND
     1    1    5 1
     2    2    5 1
     3    3    6 1
     4    4    6 1
     5    5    7 1
     6    6    7 1
     7    1    8 1
     8    1    9 1
     9    1   10 1
    10    2   11 1
    11    2   12 1
    12    2   13 1
    13    3   14 1
    14    3   15 1
    15    3   16 1
    16    4   17 1
    17    4   18 1
    18    4   19 1
    19    5   20 1
    20    6   21 1
