@<TRIPOS>MOLECULE
2_methylpyridine
   14    14     0     0     0
SMALL
USER_CHARGES

@<TRIPOS>ATOM
      1 C1          1.2858   -0.0601    1.7333 C.ar      1 MOL        -0.0897
      2 C2          0.1842   -0.4388    0.9739 C.ar      1 MOL        -0.2533
      3 C3          1.4967   -0.6399    2.9793 C.ar      1 MOL        -0.2515
      4 C4         -0.6697   -1.3939    1.5014 C.ar      1 MOL         0.3994
      5 C5          0.5838   -1.5858    3.4172 C.ar      1 MOL         0.4120
      6 C6          0.7795   -2.2284    4.7501 C.3       1 MOL        -0.1474
      7 N1         -0.4976   -1.9792    2.7078 N.ar      1 MOL        -0.6678
      8 H1          1.9786    0.6854    1.3544 H         1 MOL         0.1364
      9 H2          0.0001   -0.0010   -0.0004 H         1 MOL         0.1424
     10 H3          2.3525   -0.3531    3.5811 H         1 MOL         0.1410
     11 H4         -1.5432   -1.7235    0.9483 H         1 MOL         0.0206
     12 H5          1.5658   -1.7096    5.3111 H         1 MOL         0.0527
     13 H6         -0.1443   -2.2054    5.3417 H         1 MOL         0.0527
     14 H7          1.0640   -3.2831    4.6447 H         1 MOL         0.0527
@<TRIPOS>BOND
     1    1    2 ar
     2    1    3 ar
     3    2    4 ar
     4    3    5 ar
     5    4    7 ar
     6    5    6 1
     7    5    7 ar
     8    1    8 1
     9    2    9 1
    10    3   10 1
    11    4   11 1
    12    6   12 1
    13    6   13 1
    14    6   14 1
