@<TRIPOS>MOLECULE
pentachloronitrobenzene
   14    14     0     0     0
SMALL
USER_CHARGES

@<TRIPOS>ATOM
      1 C1          1.8850   -1.0360   -0.1120 C.ar      1 MOL        -0.1455
      2 C2          0.8070   -0.4630    0.5610 C.ar      1 MOL         0.0615
      3 C3          2.9210   -1.6310    0.6080 C.ar      1 MOL         0.0616
      4 C4          0.7640   -0.4840    1.9550 C.ar      1 MOL         0.0156
      5 C5          2.8780   -1.6520    2.0020 C.ar      1 MOL         0.0156
      6 C6          1.8000   -1.0790    2.6760 C.ar      1 MOL         0.0490
      7 N1          1.9290   -1.0150   -1.5410 N.pl3     1 MOL         0.6196
      8 O1          1.4170   -1.9670   -2.1700 O.2       1 MOL        -0.3182
      9 O2          2.4770   -0.0460   -2.1090 O.2       1 MOL        -0.3182
     10 Cl1        -0.4770    0.2750   -0.3570 Cl        1 MOL        -0.0042
     11 Cl2         4.2590   -2.3440   -0.2510 Cl        1 MOL        -0.0047
     12 Cl3        -0.5870    0.2320    2.7920 Cl        1 MOL        -0.0111
     13 Cl4         4.1740   -2.3970    2.8990 Cl        1 MOL        -0.0106
     14 Cl5         1.7470   -1.1030    4.4180 Cl        1 MOL        -0.0104
@<TRIPOS>BOND
     1    1    2 ar
     2    1    3 ar
     3    1    7 1
     4    2    4 ar
     5    2   10 1
     6    3    5 ar
     7    3   11 1
     8    4    6 ar
     9    4   12 1
    10    5    6 ar
    11    5   13 1
    12    6   14 1
    13    7    8 2
    14    7    9 2
