@<TRIPOS>MOLECULE
dimethyl_sulfone
   11    10     0     0     0
SMALL
USER_CHARGES

@<TRIPOS>ATOM
      1 C1          1.0616    0.2382    0.0927 C.3       1 MOL        -0.3659
      2 C2          3.0251    1.5695    1.5420 C.3       1 MOL        -0.3659
      3 O1          0.9469    0.4790    2.6930 O.2       1 MOL        -0.6555
      4 O2          0.6108    2.5316    1.2629 O.2       1 MOL        -0.6555
      5 S1          1.2749    1.2694    1.5227 S.o2      1 MOL         1.3531
      6 H1          0.2518   -0.4651    0.2930 H         1 MOL         0.1150
      7 H2          0.8133    0.8754   -0.7574 H         1 MOL         0.1150
      8 H3          1.9955   -0.2956   -0.0892 H         1 MOL         0.1150
      9 H4          3.1989    2.6115    1.2690 H         1 MOL         0.1150
     10 H5          3.3975    1.3706    2.5481 H         1 MOL         0.1150
     11 H6          3.4970    0.9012    0.8202 H         1 MOL         0.1150
@<TRIPOS>BOND
     1    1    5 1
     2    2    5 1
     3    3    5 2
     4    4    5 2
     5    1    6 1
     6    1    7 1
     7    1    8 1
     8    2    9 1
     9    2   10 1
    10    2   11 1
