@<TRIPOS>MOLECULE
4_isopropyltoluene@0
   24    24     0     0     0
SMALL
USER_CHARGES

@<TRIPOS>ATOM
      1 C1          1.3674    0.0952    0.5565 C.ar      1 MOL        -0.1295
      2 C2          2.3697   -2.0952    0.6092 C.ar      1 MOL        -0.1295
      3 C3          1.4200    0.1529    1.9518 C.ar      1 MOL        -0.1229
      4 C4          2.4224   -2.0376    2.0046 C.ar      1 MOL        -0.1229
      5 C5          1.8301   -1.0346   -0.1255 C.ar      1 MOL        -0.0709
      6 C6          1.9461   -0.9136    2.6948 C.ar      1 MOL        -0.0682
      7 C7          1.8049   -1.0823   -1.6232 C.3       1 MOL        -0.0594
      8 C8          3.4321   -0.8631    4.7298 C.3       1 MOL        -0.0848
      9 C9          1.1495   -1.9251    4.8623 C.3       1 MOL        -0.0848
     10 C10         1.9932   -0.8274    4.2089 C.3       1 MOL         0.0925
     11 H1          0.9609    0.9406    0.0067 H         1 MOL         0.1296
     12 H2          2.7534   -2.9765    0.1010 H         1 MOL         0.1296
     13 H3          1.0475    1.0430    2.4532 H         1 MOL         0.1305
     14 H4          2.8433   -2.8810    2.5463 H         1 MOL         0.1305
     15 H5          1.6930   -2.1116   -1.9798 H         1 MOL         0.0423
     16 H6          0.9598   -0.5088   -2.0184 H         1 MOL         0.0423
     17 H7          2.7336   -0.6672   -2.0267 H         1 MOL         0.0423
     18 H8          3.9223   -1.8189    4.5149 H         1 MOL         0.0142
     19 H9          3.4522   -0.7160    5.8151 H         1 MOL         0.0142
     20 H10         4.0336   -0.0694    4.2728 H         1 MOL         0.0142
     21 H11         0.1163   -1.8931    4.4990 H         1 MOL         0.0142
     22 H12         1.1264   -1.7964    5.9499 H         1 MOL         0.0142
     23 H13         1.5456   -2.9251    4.6547 H         1 MOL         0.0142
     24 H14         1.5629    0.1347    4.5176 H         1 MOL         0.0483
@<TRIPOS>BOND
     1    1    3 ar
     2    1    5 ar
     3    1   11 1
     4    2    4 ar
     5    2    5 ar
     6    2   12 1
     7    3    6 ar
     8    3   13 1
     9    4    6 ar
    10    4   14 1
    11    5    7 1
    12    6   10 1
    13    7   15 1
    14    7   16 1
    15    7   17 1
    16    8   10 1
    17    8   18 1
    18    8   19 1
    19    8   20 1
    20    9   10 1
    21    9   21 1
    22    9   22 1
    23    9   23 1
    24   10   24 1
