@<TRIPOS>MOLECULE
CUP08041_AM1BCC_v1_0
   13    12     0     0     0
SMALL
USER_CHARGES

@<TRIPOS>ATOM
      1 C1         -1.6927    1.0844   -0.4795 C.2       1 MOL         0.5597
      2 C2         -0.4206    0.3309   -0.7700 C.3       1 MOL        -0.1994
      3 C3         -2.8446    0.2605    0.0716 C.3       1 MOL         0.0211
      4 N1         -5.0689    0.3835    0.8087 N.pl3     1 MOL         0.3748
      5 O1         -1.7727    2.2950   -0.6837 O.2       1 MOL        -0.4728
      6 O2         -4.9180   -0.8265    0.9898 O.3       1 MOL        -0.1763
      7 O3         -6.0514    1.0937    1.0083 O.2       1 MOL        -0.1763
      8 O4         -3.9659    1.0970    0.2952 O.3       1 MOL        -0.3223
      9 H1         -0.6149   -0.4409   -1.5188 H         1 MOL         0.0721
     10 H2          0.3351    1.0188   -1.1593 H         1 MOL         0.0721
     11 H3         -0.0448   -0.1222    0.1506 H         1 MOL         0.0721
     12 H4         -2.5042   -0.1868    1.0128 H         1 MOL         0.0877
     13 H5         -3.0806   -0.5085   -0.6732 H         1 MOL         0.0877
@<TRIPOS>BOND
     1    1    2 1
     2    1    3 1
     3    1    5 2
     4    3    8 1
     5    4    6 1
     6    4    7 2
     7    4    8 1
     8    2    9 1
     9    2   10 1
    10    2   11 1
    11    3   12 1
    12    3   13 1
