@<TRIPOS>MOLECULE
flurbiprofen
   31    32     0     0     0
SMALL
USER_CHARGES

@<TRIPOS>ATOM
      1 C1          1.8850   -1.0360   -0.1130 C.ar      1 MOL        -0.1217
      2 C2          1.8400    0.1610    0.6020 C.ar      1 MOL        -0.1331
      3 C3          1.8870   -2.2550    0.5670 C.ar      1 MOL        -0.1301
      4 C4          1.7980    0.1400    1.9960 C.ar      1 MOL        -0.1145
      5 C5          1.8440   -2.2760    1.9610 C.ar      1 MOL        -0.1055
      6 C6          0.6750   -0.5260    4.7900 C.ar      1 MOL        -0.1020
      7 C7          0.6270   -0.5450    6.1840 C.ar      1 MOL        -0.1317
      8 C8          2.7410   -1.7140    6.2410 C.ar      1 MOL        -0.1540
      9 C9          1.8000   -1.0790    2.6760 C.ar      1 MOL        -0.0456
     10 C10         1.7550   -1.1010    4.1220 C.ar      1 MOL        -0.0575
     11 C11         1.6600   -1.1390    6.9100 C.ar      1 MOL        -0.0675
     12 C12         2.7890   -1.6940    4.8470 C.ar      1 MOL         0.1368
     13 C13         1.5430   -2.5810    8.9680 C.2       1 MOL         0.6396
     14 C14         2.7760   -0.4040    9.0700 C.3       1 MOL        -0.0918
     15 C15         1.6100   -1.1590    8.4000 C.3       1 MOL        -0.0583
     16 O1          1.5540   -3.5980    8.2870 O.2       1 MOL        -0.5474
     17 O2          1.4600   -2.6100   10.3250 O.3       1 MOL        -0.6053
     18 F1          3.8340   -2.2510    4.2180 F         1 MOL        -0.1336
     19 H1          1.9180   -1.0200   -1.1980 H         1 MOL         0.1328
     20 H2          1.8390    1.1090    0.0730 H         1 MOL         0.1323
     21 H3          1.9210   -3.1860    0.0100 H         1 MOL         0.1346
     22 H4          1.7640    1.0810    2.5400 H         1 MOL         0.1336
     23 H5          1.8470   -3.2330    2.4770 H         1 MOL         0.1421
     24 H6         -0.1380   -0.0580    4.2400 H         1 MOL         0.1437
     25 H7         -0.2190   -0.0950    6.6970 H         1 MOL         0.1391
     26 H8          3.5510   -2.1780    6.7970 H         1 MOL         0.1708
     27 H9          3.7460   -0.8360    8.7970 H         1 MOL         0.0599
     28 H10         2.7740    0.6500    8.7720 H         1 MOL         0.0531
     29 H11         2.7110   -0.4420   10.1630 H         1 MOL         0.0469
     30 H12         0.6800   -0.6560    8.7320 H         1 MOL         0.0892
     31 H13         1.4090   -3.5050   10.7230 H         1 MOL         0.4451
@<TRIPOS>BOND
     1    1    2 ar
     2    1    3 ar
     3    2    4 ar
     4    3    5 ar
     5    4    9 ar
     6    5    9 ar
     7    6    7 ar
     8    6   10 ar
     9    7   11 ar
    10    8   11 ar
    11    8   12 ar
    12    9   10 1
    13   10   12 ar
    14   11   15 1
    15   12   18 1
    16   13   15 1
    17   13   16 2
    18   13   17 1
    19   14   15 1
    20    1   19 1
    21    2   20 1
    22    3   21 1
    23    4   22 1
    24    5   23 1
    25    6   24 1
    26    7   25 1
    27    8   26 1
    28   14   27 1
    29   14   28 1
    30   14   29 1
    31   15   30 1
    32   17   31 1
