@<TRIPOS>MOLECULE
CUP08040_AM1BCC_v1_0
   42    42     0     0     0
SMALL
USER_CHARGES

@<TRIPOS>ATOM
      1 C1          4.0856   -1.9690   -4.0932 C.ar      1 MOL         0.0688
      2 C2          4.6516   -1.6551   -1.7647 C.ar      1 MOL         0.0688
      3 C3          3.1949   -0.8871   -3.9914 C.ar      1 MOL        -0.2376
      4 C4          3.7505   -0.5736   -1.7057 C.ar      1 MOL        -0.2376
      5 C5          2.9678   -0.1574   -2.8023 C.ar      1 MOL         0.3490
      6 C6          4.7956   -2.3563   -2.9607 C.ar      1 MOL        -0.4017
      7 C7         -1.1940   -0.5700   -1.2718 C.3       1 MOL        -0.0914
      8 C8          2.4495    4.4804   -4.0013 C.3       1 MOL        -0.0914
      9 C9          4.9785   -5.1303   -2.7012 C.3       1 MOL        -0.3684
     10 C10         0.0393   -0.5050   -2.1593 C.3       1 MOL        -0.1077
     11 C11         1.8203    3.1043   -3.8517 C.3       1 MOL        -0.1077
     12 C12         0.8632    0.7537   -1.8775 C.3       1 MOL         0.2283
     13 C13         2.6144    2.2304   -2.8771 C.3       1 MOL         0.2283
     14 N1          2.0160    0.8764   -2.7987 N.pl3     1 MOL        -0.7247
     15 N2          2.4672   -0.5413   -5.1954 N.pl3     1 MOL         0.3173
     16 N3          3.6829    0.1097   -0.4319 N.pl3     1 MOL         0.3173
     17 O1          1.4738   -1.2319   -5.4614 O.3       1 MOL        -0.1879
     18 O2          2.9430    0.3584   -5.9002 O.2       1 MOL        -0.1879
     19 O3          3.1293   -0.4991    0.4935 O.3       1 MOL        -0.1879
     20 O4          4.2172    1.2225   -0.3545 O.2       1 MOL        -0.1879
     21 O5          6.3884   -3.7721   -4.4475 O.2       1 MOL        -0.6454
     22 O6          6.9140   -3.5096   -1.9921 O.2       1 MOL        -0.6454
     23 S1          5.9590   -3.6978   -3.0657 S.o2      1 MOL         1.4020
     24 H1          4.2186   -2.4858   -5.0431 H         1 MOL         0.1911
     25 H2          5.2375   -1.9299   -0.8870 H         1 MOL         0.1911
     26 H3         -0.9146   -0.5855   -0.2133 H         1 MOL         0.0387
     27 H4         -1.8469    0.2919   -1.4429 H         1 MOL         0.0387
     28 H5         -1.7673   -1.4776   -1.4855 H         1 MOL         0.0387
     29 H6          2.4840    5.0022   -3.0396 H         1 MOL         0.0387
     30 H7          3.4704    4.4053   -4.3890 H         1 MOL         0.0387
     31 H8          1.8660    5.0902   -4.6982 H         1 MOL         0.0387
     32 H9          5.6294   -6.0061   -2.7449 H         1 MOL         0.1210
     33 H10         4.5590   -5.0291   -1.6985 H         1 MOL         0.1210
     34 H11         4.1861   -5.2192   -3.4469 H         1 MOL         0.1210
     35 H12        -0.2729   -0.5184   -3.2101 H         1 MOL         0.0566
     36 H13         0.6402   -1.4059   -1.9913 H         1 MOL         0.0566
     37 H14         1.7698    2.6228   -4.8345 H         1 MOL         0.0566
     38 H15         0.7870    3.2221   -3.5075 H         1 MOL         0.0566
     39 H16         0.2077    1.6219   -2.0151 H         1 MOL         0.0568
     40 H17         1.1812    0.7826   -0.8312 H         1 MOL         0.0568
     41 H18         3.6551    2.1789   -3.2243 H         1 MOL         0.0568
     42 H19         2.6255    2.6969   -1.8847 H         1 MOL         0.0568
@<TRIPOS>BOND
     1    1    3 ar
     2    1    6 ar
     3    2    4 ar
     4    2    6 ar
     5    3    5 ar
     6    3   15 1
     7    4    5 ar
     8    4   16 1
     9    5   14 1
    10    6   23 1
    11    7   10 1
    12    8   11 1
    13    9   23 1
    14   10   12 1
    15   11   13 1
    16   12   14 1
    17   13   14 1
    18   15   17 1
    19   15   18 2
    20   16   19 1
    21   16   20 2
    22   21   23 2
    23   22   23 2
    24    1   24 1
    25    2   25 1
    26    7   26 1
    27    7   27 1
    28    7   28 1
    29    8   29 1
    30    8   30 1
    31    8   31 1
    32    9   32 1
    33    9   33 1
    34    9   34 1
    35   10   35 1
    36   10   36 1
    37   11   37 1
    38   11   38 1
    39   12   39 1
    40   12   40 1
    41   13   41 1
    42   13   42 1
