@<TRIPOS>MOLECULE
n_pentyl_acetate
   23    22     0     0     0
SMALL
USER_CHARGES

@<TRIPOS>ATOM
      1 C1          5.2396   -2.0410   -5.0250 C.2       1 MOL         0.6307
      2 C2          5.9981   -3.2190   -5.5571 C.3       1 MOL        -0.1460
      3 C3          0.8518   -0.3688    0.6905 C.3       1 MOL        -0.0896
      4 C4          1.6513   -1.4310   -0.0471 C.3       1 MOL        -0.0783
      5 C5          2.2938   -0.8687   -1.3148 C.3       1 MOL        -0.0762
      6 C6          3.1237   -1.9294   -2.0346 C.3       1 MOL        -0.0892
      7 C7          3.8013   -1.3663   -3.2758 C.3       1 MOL         0.1402
      8 O1          5.2382   -0.9344   -5.5470 O.2       1 MOL        -0.5428
      9 O2          4.5660   -2.3952   -3.8884 O.3       1 MOL        -0.4461
     10 H1          5.3033   -4.0227   -5.8129 H         1 MOL         0.0743
     11 H2          6.7242   -3.5589   -4.8143 H         1 MOL         0.0743
     12 H3          6.5382   -2.9240   -6.4615 H         1 MOL         0.0743
     13 H4          1.4920    0.4677    0.9886 H         1 MOL         0.0322
     14 H5          0.0454    0.0222    0.0620 H         1 MOL         0.0322
     15 H6          0.4031   -0.7919    1.5947 H         1 MOL         0.0322
     16 H7          0.9892   -2.2661   -0.3036 H         1 MOL         0.0381
     17 H8          2.4270   -1.8247    0.6201 H         1 MOL         0.0381
     18 H9          1.5129   -0.4939   -1.9877 H         1 MOL         0.0438
     19 H10         2.9330   -0.0158   -1.0553 H         1 MOL         0.0438
     20 H11         2.4898   -2.7778   -2.3208 H         1 MOL         0.0520
     21 H12         3.8852   -2.3389   -1.3593 H         1 MOL         0.0520
     22 H13         4.4727   -0.5420   -3.0147 H         1 MOL         0.0550
     23 H14         3.0598   -1.0074   -3.9966 H         1 MOL         0.0550
@<TRIPOS>BOND
     1    1    2 1
     2    1    8 2
     3    1    9 1
     4    3    4 1
     5    4    5 1
     6    5    6 1
     7    6    7 1
     8    7    9 1
     9    2   10 1
    10    2   11 1
    11    2   12 1
    12    3   13 1
    13    3   14 1
    14    3   15 1
    15    4   16 1
    16    4   17 1
    17    5   18 1
    18    5   19 1
    19    6   20 1
    20    6   21 1
    21    7   22 1
    22    7   23 1
