@<TRIPOS>MOLECULE
SAMPL4_003
   29    28     0     0     0
SMALL
USER_CHARGES

@<TRIPOS>ATOM
      1 C1          0.2860   -2.1830   -2.1030 C.2       1 MOL        -0.1772
      2 C2          1.8230   -1.8180    1.2680 C.2       1 MOL        -0.1742
      3 C3          0.3850   -1.0690   -2.8520 C.2       1 MOL        -0.1244
      4 C4          0.5260   -1.7580    0.9080 C.2       1 MOL        -0.1144
      5 C5          1.5510   -0.8830   -3.7870 C.3       1 MOL        -0.0584
      6 C6         -0.5890    0.0740   -2.8430 C.3       1 MOL        -0.0584
      7 C7         -0.2730   -0.5070    1.1720 C.3       1 MOL        -0.0589
      8 C8         -0.7970   -2.5520   -1.1270 C.3       1 MOL        -0.0402
      9 C9          2.7790   -2.9530    1.0820 C.3       1 MOL         0.1646
     10 C10        -0.2460   -2.8910    0.2650 C.3       1 MOL        -0.0422
     11 O1          3.2800   -3.3370    2.3550 O.3       1 MOL        -0.6008
     12 H1          1.0700   -2.9340   -2.1970 H         1 MOL         0.1270
     13 H2          2.2640   -0.9380    1.7350 H         1 MOL         0.1440
     14 H3          1.3150   -1.2950   -4.7730 H         1 MOL         0.0404
     15 H4          1.8140    0.1710   -3.9220 H         1 MOL         0.0404
     16 H5          2.4350   -1.3980   -3.3970 H         1 MOL         0.0404
     17 H6         -0.2910    0.8150   -2.0930 H         1 MOL         0.0404
     18 H7         -0.6690    0.5900   -3.8010 H         1 MOL         0.0404
     19 H8         -1.5910   -0.2890   -2.5890 H         1 MOL         0.0404
     20 H9         -0.2010    0.1750    0.3180 H         1 MOL         0.0427
     21 H10         0.1010    0.0090    2.0610 H         1 MOL         0.0427
     22 H11        -1.3350   -0.7180    1.3370 H         1 MOL         0.0427
     23 H12        -1.5730   -1.7850   -1.0560 H         1 MOL         0.0477
     24 H13        -1.3040   -3.4410   -1.5230 H         1 MOL         0.0477
     25 H14         3.6200   -2.6220    0.4640 H         1 MOL         0.0297
     26 H15         2.3340   -3.8300    0.6080 H         1 MOL         0.0297
     27 H16        -1.0890   -3.1490    0.9200 H         1 MOL         0.0452
     28 H17         0.3540   -3.8060    0.2140 H         1 MOL         0.0452
     29 H18         3.8950   -4.0730    2.2040 H         1 MOL         0.4000
@<TRIPOS>BOND
     1    1    3 2
     2    1    8 1
     3    2    4 2
     4    2    9 1
     5    3    5 1
     6    3    6 1
     7    4    7 1
     8    4   10 1
     9    8   10 1
    10    9   11 1
    11    1   12 1
    12    2   13 1
    13    5   14 1
    14    5   15 1
    15    5   16 1
    16    6   17 1
    17    6   18 1
    18    6   19 1
    19    7   20 1
    20    7   21 1
    21    7   22 1
    22    8   23 1
    23    8   24 1
    24    9   25 1
    25    9   26 1
    26   10   27 1
    27   10   28 1
    28   11   29 1
