@<TRIPOS>MOLECULE
SAMPL4_016
   31    31     0     0     0
SMALL
USER_CHARGES

@<TRIPOS>ATOM
      1 C1         -0.9420   -0.4470   -1.3190 C.3       1 MOL        -0.0764
      2 C2         -1.2800   -1.0230    0.0550 C.3       1 MOL        -0.0764
      3 C3          1.0100    0.7950   -0.3200 C.3       1 MOL        -0.1094
      4 C4          0.5530   -0.1350   -1.4480 C.3       1 MOL        -0.0617
      5 C5         -0.8220   -0.0980    1.1900 C.3       1 MOL        -0.0517
      6 C6          0.6750    0.2270    1.0600 C.3       1 MOL         0.1431
      7 C7          0.8600    0.4800   -2.8130 C.3       1 MOL        -0.0901
      8 C8         -2.6460   -0.9290    2.7020 C.3       1 MOL        -0.0886
      9 C9         -0.4000   -2.0510    2.7100 C.3       1 MOL        -0.0886
     10 C10        -1.1410   -0.7280    2.5490 C.3       1 MOL        -0.0667
     11 O1          1.0370    1.1850    2.0520 O.3       1 MOL        -0.6018
     12 H1         -1.2430   -1.1620   -2.0940 H         1 MOL         0.0417
     13 H2         -1.5310    0.4650   -1.4820 H         1 MOL         0.0417
     14 H3         -2.3620   -1.1860    0.1190 H         1 MOL         0.0442
     15 H4         -0.8050   -2.0070    0.1600 H         1 MOL         0.0442
     16 H5          2.0920    0.9710   -0.3870 H         1 MOL         0.0462
     17 H6          0.5460    1.7850   -0.4310 H         1 MOL         0.0462
     18 H7          1.1130   -1.0760   -1.3690 H         1 MOL         0.0467
     19 H8         -1.3870    0.8410    1.1330 H         1 MOL         0.0607
     20 H9          1.2720   -0.6780    1.2350 H         1 MOL         0.0337
     21 H10         0.3200    1.4190   -2.9250 H         1 MOL         0.0350
     22 H11         0.5540   -0.2040   -3.6030 H         1 MOL         0.0350
     23 H12         1.9280    0.6710   -2.9000 H         1 MOL         0.0350
     24 H13        -3.0380   -1.6120    1.9400 H         1 MOL         0.0320
     25 H14        -3.1780    0.0230    2.6100 H         1 MOL         0.0320
     26 H15        -2.8800   -1.3500    3.6860 H         1 MOL         0.0320
     27 H16        -0.7050   -2.7760    1.9480 H         1 MOL         0.0320
     28 H17        -0.6000   -2.4880    3.6940 H         1 MOL         0.0320
     29 H18         0.6820   -1.9050    2.6230 H         1 MOL         0.0320
     30 H19        -0.8010   -0.0410    3.3310 H         1 MOL         0.0697
     31 H20         1.9910    1.3340    1.9560 H         1 MOL         0.3970
@<TRIPOS>BOND
     1    1    2 1
     2    1    4 1
     3    2    5 1
     4    3    4 1
     5    3    6 1
     6    4    7 1
     7    5    6 1
     8    5   10 1
     9    6   11 1
    10    8   10 1
    11    9   10 1
    12    1   12 1
    13    1   13 1
    14    2   14 1
    15    2   15 1
    16    3   16 1
    17    3   17 1
    18    4   18 1
    19    5   19 1
    20    6   20 1
    21    7   21 1
    22    7   22 1
    23    7   23 1
    24    8   24 1
    25    8   25 1
    26    8   26 1
    27    9   27 1
    28    9   28 1
    29    9   29 1
    30   10   30 1
    31   11   31 1
