@<TRIPOS>MOLECULE
sulfolane
   15    15     0     0     0
SMALL
USER_CHARGES

@<TRIPOS>ATOM
      1 C1          0.3390    0.4830    0.9250 C.3       1 MOL        -0.0585
      2 C2         -0.8090    0.5230    1.9320 C.3       1 MOL        -0.0533
      3 C3          1.4400   -0.3490    1.5720 C.3       1 MOL        -0.3123
      4 C4         -1.0390   -0.9200    2.3680 C.3       1 MOL        -0.3144
      5 O1          1.0340   -1.6420    3.8320 O.3       1 MOL        -0.6078
      6 O2          0.6020   -2.8500    1.6430 O.3       1 MOL        -0.6072
      7 S1          0.5900   -1.6500    2.4540 S.3       1 MOL         1.2199
      8 H1         -0.0010    0.0000    0.0000 H         1 MOL         0.0578
      9 H2          0.6930    1.4860    0.6700 H         1 MOL         0.0637
     10 H3         -0.5180    1.1330    2.7960 H         1 MOL         0.0558
     11 H4         -1.7150    0.9600    1.5020 H         1 MOL         0.0631
     12 H5          2.1230   -0.7830    0.8390 H         1 MOL         0.1245
     13 H6          1.9990    0.2410    2.3040 H         1 MOL         0.1219
     14 H7         -1.5290   -0.9910    3.3410 H         1 MOL         0.1235
     15 H8         -1.6130   -1.4700    1.6170 H         1 MOL         0.1233
@<TRIPOS>BOND
     1    1    2 1
     2    1    3 1
     3    2    4 1
     4    3    7 1
     5    4    7 1
     6    5    7 1
     7    6    7 1
     8    1    8 1
     9    1    9 1
    10    2   10 1
    11    2   11 1
    12    3   12 1
    13    3   13 1
    14    4   14 1
    15    4   15 1
