@<TRIPOS>MOLECULE
n_propyl_butyrate
   23    22     0     0     0
SMALL
USER_CHARGES

@<TRIPOS>ATOM
      1 C1          2.6749   -0.7723    3.1243 C.2       1 MOL         0.6319
      2 C2         -0.3781   -0.6942    0.7529 C.3       1 MOL        -0.0936
      3 C3          7.2661   -1.2978    4.6838 C.3       1 MOL        -0.0891
      4 C4          1.8852   -0.8881    1.8405 C.3       1 MOL        -0.1260
      5 C5          0.4001   -0.6068    2.0556 C.3       1 MOL        -0.0754
      6 C6          6.2755   -1.3342    3.5341 C.3       1 MOL        -0.0926
      7 C7          4.8658   -0.9912    3.9907 C.3       1 MOL         0.1400
      8 O1          2.2091   -0.4717    4.2148 O.2       1 MOL        -0.5398
      9 O2          3.9853   -1.0584    2.8643 O.3       1 MOL        -0.4482
     10 H1         -1.4384   -0.4883    0.9301 H         1 MOL         0.0369
     11 H2         -0.0074    0.0344    0.0247 H         1 MOL         0.0369
     12 H3         -0.2951   -1.6932    0.3128 H         1 MOL         0.0369
     13 H4          6.9914   -2.0182    5.4610 H         1 MOL         0.0362
     14 H5          8.2702   -1.5489    4.3280 H         1 MOL         0.0362
     15 H6          7.3054   -0.3020    5.1364 H         1 MOL         0.0362
     16 H7          2.2964   -0.1716    1.1205 H         1 MOL         0.0765
     17 H8          2.0160   -1.9032    1.4493 H         1 MOL         0.0765
     18 H9         -0.0159   -1.3233    2.7741 H         1 MOL         0.0539
     19 H10         0.2672    0.3908    2.4908 H         1 MOL         0.0539
     20 H11         6.2803   -2.3277    3.0699 H         1 MOL         0.0514
     21 H12         6.5888   -0.6343    2.7502 H         1 MOL         0.0514
     22 H13         4.5169   -1.7002    4.7484 H         1 MOL         0.0550
     23 H14         4.8247    0.0212    4.4051 H         1 MOL         0.0550
@<TRIPOS>BOND
     1    1    4 1
     2    1    8 2
     3    1    9 1
     4    2    5 1
     5    3    6 1
     6    4    5 1
     7    6    7 1
     8    7    9 1
     9    2   10 1
    10    2   11 1
    11    2   12 1
    12    3   13 1
    13    3   14 1
    14    3   15 1
    15    4   16 1
    16    4   17 1
    17    5   18 1
    18    5   19 1
    19    6   20 1
    20    6   21 1
    21    7   22 1
    22    7   23 1
