@<TRIPOS>MOLECULE
E_12_dichloroethene
    6     5     0     0     0
SMALL
USER_CHARGES

@<TRIPOS>ATOM
      1 C1          2.0175   -0.6856   -0.1987 C.2       1 MOL        -0.0707
      2 C2          0.7545   -0.5145   -0.5799 C.2       1 MOL        -0.0707
      3 Cl1         2.6207   -0.0983    1.2927 Cl        1 MOL        -0.0946
      4 Cl2         0.1506   -1.1006   -2.0716 Cl        1 MOL        -0.0946
      5 H1          2.7721   -1.2008   -0.7782 H         1 MOL         0.1653
      6 H2          0.0000    0.0000   -0.0000 H         1 MOL         0.1653
@<TRIPOS>BOND
     1    1    2 2
     2    1    3 1
     3    2    4 1
     4    1    5 1
     5    2    6 1
