@<TRIPOS>MOLECULE
cyclopentene
   13    13     0     0     0
SMALL
USER_CHARGES

@<TRIPOS>ATOM
      1 C1          1.0673    0.0406    0.1621 C.2       1 MOL        -0.1800
      2 C2          1.8543   -1.0339    0.2659 C.2       1 MOL        -0.1800
      3 C3          1.8327    1.3080    0.3408 C.3       1 MOL        -0.0540
      4 C4          3.2731   -0.6587    0.5308 C.3       1 MOL        -0.0540
      5 C5          3.2860    0.8434    0.2491 C.3       1 MOL        -0.0811
      6 H1          0.0000   -0.0002   -0.0001 H         1 MOL         0.1358
      7 H2          1.5039   -2.0536    0.1984 H         1 MOL         0.1358
      8 H3          1.6016    2.0375   -0.4408 H         1 MOL         0.0481
      9 H4          1.6126    1.7512    1.3173 H         1 MOL         0.0481
     10 H5          3.5361   -0.8760    1.5711 H         1 MOL         0.0481
     11 H6          3.9657   -1.1893   -0.1290 H         1 MOL         0.0481
     12 H7          3.6692    1.0266   -0.7634 H         1 MOL         0.0427
     13 H8          3.9367    1.3869    0.9419 H         1 MOL         0.0427
@<TRIPOS>BOND
     1    1    2 2
     2    1    3 1
     3    2    4 1
     4    3    5 1
     5    4    5 1
     6    1    6 1
     7    2    7 1
     8    3    8 1
     9    3    9 1
    10    4   10 1
    11    4   11 1
    12    5   12 1
    13    5   13 1
