@<TRIPOS>MOLECULE
14_dimethyl_piperazine
   22    22     0     0     0
SMALL
USER_CHARGES

@<TRIPOS>ATOM
      1 C1          0.9733   -0.4226   -0.2775 C.3       1 MOL         0.1463
      2 C2          0.7469   -1.4824   -1.3611 C.3       1 MOL         0.1463
      3 C3          2.8769   -1.6606    0.5350 C.3       1 MOL         0.1463
      4 C4          2.6493   -2.7208   -0.5481 C.3       1 MOL         0.1463
      5 C5          1.8318    0.0009    1.9360 C.3       1 MOL         0.1480
      6 C6          1.7938   -3.1419   -2.7630 C.3       1 MOL         0.1480
      7 N1          1.6130   -1.0119    0.9052 N.3       1 MOL        -0.7094
      8 N2          2.0113   -2.1302   -1.7310 N.3       1 MOL        -0.7094
      9 H1          1.5833    0.3969   -0.6816 H         1 MOL         0.0436
     10 H2          0.0018    0.0021    0.0036 H         1 MOL         0.0436
     11 H3          0.0182   -2.2248   -1.0079 H         1 MOL         0.0436
     12 H4          0.3134   -0.9934   -2.2419 H         1 MOL         0.0436
     13 H5          3.3096   -2.1500    1.4158 H         1 MOL         0.0436
     14 H6          3.6061   -0.9188    0.1814 H         1 MOL         0.0436
     15 H7          3.6207   -3.1457   -0.8289 H         1 MOL         0.0436
     16 H8          2.0382   -3.5396   -0.1440 H         1 MOL         0.0436
     17 H9          0.8804    0.3157    2.3742 H         1 MOL         0.0314
     18 H10         2.3268    0.8762    1.5063 H         1 MOL         0.0314
     19 H11         2.4684   -0.3996    2.7299 H         1 MOL         0.0314
     20 H12         2.1079   -4.1275   -2.4080 H         1 MOL         0.0314
     21 H13         2.3657   -2.8939   -3.6615 H         1 MOL         0.0314
     22 H14         0.7344   -3.1866   -3.0307 H         1 MOL         0.0314
@<TRIPOS>BOND
     1    1    2 1
     2    1    7 1
     3    2    8 1
     4    3    4 1
     5    3    7 1
     6    4    8 1
     7    5    7 1
     8    6    8 1
     9    1    9 1
    10    1   10 1
    11    2   11 1
    12    2   12 1
    13    3   13 1
    14    3   14 1
    15    4   15 1
    16    4   16 1
    17    5   17 1
    18    5   18 1
    19    5   19 1
    20    6   20 1
    21    6   21 1
    22    6   22 1
