@<TRIPOS>MOLECULE
tert_butylbenzene
   24    24     0     0     0
SMALL
USER_CHARGES

@<TRIPOS>ATOM
      1 C1         -2.1384   -2.7710    3.5731 C.ar      1 MOL        -0.1337
      2 C2         -0.9812   -2.0194    3.3700 C.ar      1 MOL        -0.1298
      3 C3         -3.2801   -2.5125    2.8145 C.ar      1 MOL        -0.1298
      4 C4         -0.9656   -1.0091    2.4084 C.ar      1 MOL        -0.1285
      5 C5         -3.2646   -1.5023    1.8528 C.ar      1 MOL        -0.1285
      6 C6         -2.1077   -0.7840    1.6815 C.ar      1 MOL        -0.0548
      7 C7         -1.0055    0.0255   -0.4341 C.3       1 MOL        -0.0826
      8 C8         -1.7775    1.6835    1.2954 C.3       1 MOL        -0.0826
      9 C9         -3.4286    0.4950   -0.1338 C.3       1 MOL        -0.0826
     10 C10        -2.0904    0.3299    0.6216 C.3       1 MOL        -0.0199
     11 H1         -2.1507   -3.5576    4.3220 H         1 MOL         0.1298
     12 H2         -0.0924   -2.2206    3.9609 H         1 MOL         0.1292
     13 H3         -4.1812   -3.0979    2.9729 H         1 MOL         0.1292
     14 H4         -0.0594   -0.4285    2.2572 H         1 MOL         0.1318
     15 H5         -4.1587   -1.3080    1.2663 H         1 MOL         0.1318
     16 H6         -0.9950    0.7883   -1.2214 H         1 MOL         0.0357
     17 H7          0.0000    0.0000    0.0000 H         1 MOL         0.0357
     18 H8         -1.1820   -0.9453   -0.9124 H         1 MOL         0.0357
     19 H9         -0.7879    1.6938    1.7653 H         1 MOL         0.0357
     20 H10        -1.7939    2.5015    0.5657 H         1 MOL         0.0357
     21 H11        -2.5137    1.9161    2.0739 H         1 MOL         0.0357
     22 H12        -3.3662    1.2992   -0.8768 H         1 MOL         0.0357
     23 H13        -3.7038   -0.4195   -0.6721 H         1 MOL         0.0357
     24 H14        -4.2482    0.7498    0.5482 H         1 MOL         0.0357
@<TRIPOS>BOND
     1    1    2 ar
     2    1    3 ar
     3    2    4 ar
     4    3    5 ar
     5    4    6 ar
     6    5    6 ar
     7    6   10 1
     8    7   10 1
     9    8   10 1
    10    9   10 1
    11    1   11 1
    12    2   12 1
    13    3   13 1
    14    4   14 1
    15    5   15 1
    16    7   16 1
    17    7   17 1
    18    7   18 1
    19    8   19 1
    20    8   20 1
    21    8   21 1
    22    9   22 1
    23    9   23 1
    24    9   24 1
