@<TRIPOS>MOLECULE
5-flurouracil
   12    12     0     0     0
SMALL
USER_CHARGES

@<TRIPOS>ATOM
      1 C1         -1.0700    0.3560    1.7120 C.2       1 MOL         0.0010
      2 C2         -1.9310   -0.1090    2.6140 C.2       1 MOL        -0.0315
      3 C3         -2.4750   -1.4770    2.5050 C.2       1 MOL         0.7039
      4 C4         -1.0990   -1.7120    0.4430 C.2       1 MOL         0.8037
      5 N1         -0.6590   -0.4100    0.6550 N.am      1 MOL        -0.4624
      6 N2         -2.0040   -2.1830    1.4030 N.am      1 MOL        -0.5816
      7 O1         -3.2680   -1.9180    3.3300 O.2       1 MOL        -0.5759
      8 O2         -0.7240   -2.3970   -0.5090 O.2       1 MOL        -0.6267
      9 F1         -2.3500    0.6240    3.6620 F         1 MOL        -0.1315
     10 H1         -0.6540    1.3540    1.7650 H         1 MOL         0.1793
     11 H2         -0.0010   -0.0090   -0.0060 H         1 MOL         0.3613
     12 H3         -2.3490   -3.1310    1.2820 H         1 MOL         0.3603
@<TRIPOS>BOND
     1    1    2 2
     2    1    5 1
     3    2    3 1
     4    2    9 1
     5    3    6 am
     6    3    7 2
     7    4    5 am
     8    4    6 am
     9    4    8 2
    10    1   10 1
    11    5   11 1
    12    6   12 1
