@<TRIPOS>MOLECULE
135_trimethylbenzene
   21    21     0     0     0
SMALL
USER_CHARGES

@<TRIPOS>ATOM
      1 C1          1.8994   -1.0130   -0.0784 C.ar      1 MOL        -0.1355
      2 C2          0.8129   -0.3274    1.9678 C.ar      1 MOL        -0.1355
      3 C3          2.9471   -1.4565    2.0530 C.ar      1 MOL        -0.1355
      4 C4          0.8258   -0.4081    0.5753 C.ar      1 MOL        -0.0613
      5 C5          2.9600   -1.5372    0.6605 C.ar      1 MOL        -0.0613
      6 C6          1.8736   -0.8516    2.7066 C.ar      1 MOL        -0.0613
      7 C7         -0.3076    0.1530   -0.2153 C.3       1 MOL        -0.0599
      8 C8          4.1077   -2.1844   -0.0386 C.3       1 MOL        -0.0599
      9 C9          1.8596   -0.7651    4.1956 C.3       1 MOL        -0.0599
     10 H1          1.9097   -1.0760   -1.1642 H         1 MOL         0.1299
     11 H2         -0.0237    0.1452    2.4769 H         1 MOL         0.1299
     12 H3          3.7745   -1.8646    2.6287 H         1 MOL         0.1299
     13 H4         -1.1955   -0.4831   -0.1142 H         1 MOL         0.0423
     14 H5         -0.5650    1.1657    0.1209 H         1 MOL         0.0423
     15 H6         -0.0521    0.2272   -1.2804 H         1 MOL         0.0423
     16 H7          4.8777   -2.4798    0.6845 H         1 MOL         0.0423
     17 H8          3.7861   -3.0779   -0.5891 H         1 MOL         0.0423
     18 H9          4.5613   -1.5053   -0.7722 H         1 MOL         0.0423
     19 H10         2.7703   -0.2730    4.5580 H         1 MOL         0.0423
     20 H11         0.9911   -0.1970    4.5534 H         1 MOL         0.0423
     21 H12         1.7972   -1.7616    4.6518 H         1 MOL         0.0423
@<TRIPOS>BOND
     1    1    4 ar
     2    1    5 ar
     3    2    4 ar
     4    2    6 ar
     5    3    5 ar
     6    3    6 ar
     7    4    7 1
     8    5    8 1
     9    6    9 1
    10    1   10 1
    11    2   11 1
    12    3   12 1
    13    7   13 1
    14    7   14 1
    15    7   15 1
    16    8   16 1
    17    8   17 1
    18    8   18 1
    19    9   19 1
    20    9   20 1
    21    9   21 1
