@<TRIPOS>MOLECULE
acetonitrile
    6     5     0     0     0
SMALL
USER_CHARGES

@<TRIPOS>ATOM
      1 C1         -0.2062    1.4713    1.5045 C.1       1 MOL         0.2126
      2 C2          0.4477    0.2839    0.9571 C.3       1 MOL        -0.0485
      3 N1         -0.7251    2.4137    1.9390 N.1       1 MOL        -0.3743
      4 H1          1.5134    0.4682    0.7923 H         1 MOL         0.0700
      5 H2          0.0000    0.0000    0.0000 H         1 MOL         0.0700
      6 H3          0.3512   -0.5637    1.6421 H         1 MOL         0.0700
@<TRIPOS>BOND
     1    1    2 1
     2    1    3 3
     3    2    4 1
     4    2    5 1
     5    2    6 1
