@<TRIPOS>MOLECULE
3_cyanopyridine
   12    12     0     0     0
SMALL
USER_CHARGES

@<TRIPOS>ATOM
      1 C1          2.7211   -0.3125    3.7045 C.1       1 MOL         0.2320
      2 C2          0.2061   -0.4420    0.9680 C.ar      1 MOL        -0.2510
      3 C3          1.3347   -0.0801    1.6952 C.ar      1 MOL        -0.0541
      4 C4         -0.6461   -1.3849    1.5199 C.ar      1 MOL         0.4162
      5 C5          0.6597   -1.5966    3.3985 C.ar      1 MOL         0.4360
      6 C6          1.5731   -0.6637    2.9345 C.ar      1 MOL        -0.1360
      7 N1          3.6585   -0.0258    4.3333 N.1       1 MOL        -0.3502
      8 N2         -0.4477   -1.9735    2.7207 N.ar      1 MOL        -0.6634
      9 H1         -0.0003   -0.0012   -0.0005 H         1 MOL         0.1523
     10 H2          2.0194    0.6572    1.2836 H         1 MOL         0.1520
     11 H3         -1.5403   -1.7013    0.9930 H         1 MOL         0.0298
     12 H4          0.7880   -2.0880    4.3587 H         1 MOL         0.0365
@<TRIPOS>BOND
     1    1    6 1
     2    1    7 3
     3    2    3 ar
     4    2    4 ar
     5    3    6 ar
     6    4    8 ar
     7    5    6 ar
     8    5    8 ar
     9    2    9 1
    10    3   10 1
    11    4   11 1
    12    5   12 1
