@<TRIPOS>MOLECULE
22_dimethylpentane
   23    22     0     0     0
SMALL
USER_CHARGES

@<TRIPOS>ATOM
      1 C1          0.1157   -0.6028    0.9138 C.3       1 MOL        -0.0898
      2 C2          4.2864   -1.3365    2.5308 C.3       1 MOL        -0.0830
      3 C3          3.1823    0.3307    4.0430 C.3       1 MOL        -0.0830
      4 C4          3.1488   -2.0999    4.6201 C.3       1 MOL        -0.0830
      5 C5          1.4841   -0.3503    1.5314 C.3       1 MOL        -0.0757
      6 C6          1.7432   -1.2968    2.7085 C.3       1 MOL        -0.0671
      7 C7          3.0858   -1.0883    3.4587 C.3       1 MOL        -0.0538
      8 H1         -0.6813   -0.4428    1.6470 H         1 MOL         0.0312
      9 H2         -0.0528    0.0798    0.0749 H         1 MOL         0.0312
     10 H3          0.0377   -1.6281    0.5382 H         1 MOL         0.0312
     11 H4          4.2222   -2.3222    2.0568 H         1 MOL         0.0326
     12 H5          4.3494   -0.5843    1.7378 H         1 MOL         0.0326
     13 H6          5.2295   -1.2966    3.0880 H         1 MOL         0.0326
     14 H7          4.0809    0.4413    4.6612 H         1 MOL         0.0326
     15 H8          2.3155    0.5581    4.6736 H         1 MOL         0.0326
     16 H9          3.2367    1.0908    3.2572 H         1 MOL         0.0326
     17 H10         3.0980   -3.1304    4.2506 H         1 MOL         0.0326
     18 H11         4.0805   -1.9965    5.1880 H         1 MOL         0.0326
     19 H12         2.3167   -1.9535    5.3179 H         1 MOL         0.0326
     20 H13         2.2453   -0.4851    0.7563 H         1 MOL         0.0378
     21 H14         1.5291    0.6928    1.8608 H         1 MOL         0.0378
     22 H15         1.6996   -2.3304    2.3390 H         1 MOL         0.0366
     23 H16         0.9164   -1.1952    3.4248 H         1 MOL         0.0366
@<TRIPOS>BOND
     1    1    5 1
     2    2    7 1
     3    3    7 1
     4    4    7 1
     5    5    6 1
     6    6    7 1
     7    1    8 1
     8    1    9 1
     9    1   10 1
    10    2   11 1
    11    2   12 1
    12    2   13 1
    13    3   14 1
    14    3   15 1
    15    3   16 1
    16    4   17 1
    17    4   18 1
    18    4   19 1
    19    5   20 1
    20    5   21 1
    21    6   22 1
    22    6   23 1
