@<TRIPOS>MOLECULE
CUP08002_AM1BCC_v1_0
   17    16     0     0     0
SMALL
USER_CHARGES

@<TRIPOS>ATOM
      1 C1         -0.4105    0.8713    0.5831 C.3       1 MOL        -0.1253
      2 C2         -0.8984    1.6182    2.9260 C.3       1 MOL         0.1293
      3 C3         -0.1798    0.5713    2.0620 C.3       1 MOL         0.1470
      4 N1         -1.1456    2.3142    5.1728 N.pl3     1 MOL         0.3820
      5 N2          0.1115   -1.7992    2.1708 N.pl3     1 MOL         0.3833
      6 O1         -0.8322    2.1279    6.3460 O.3       1 MOL        -0.1710
      7 O2         -1.8903    3.1599    4.6754 O.2       1 MOL        -0.1710
      8 O3         -0.3996   -2.8715    2.4855 O.3       1 MOL        -0.1746
      9 O4          1.2246   -1.5621    1.7017 O.2       1 MOL        -0.1746
     10 O5         -0.5271    1.3983    4.2882 O.3       1 MOL        -0.3576
     11 O6         -0.7551   -0.6999    2.3853 O.3       1 MOL        -0.3590
     12 H1         -1.4778    0.8306    0.3381 H         1 MOL         0.0652
     13 H2         -0.0274    1.8610    0.3157 H         1 MOL         0.0652
     14 H3          0.0841    0.1301   -0.0526 H         1 MOL         0.0652
     15 H4         -0.5880    2.6236    2.6162 H         1 MOL         0.0926
     16 H5         -1.9844    1.5022    2.8180 H         1 MOL         0.0926
     17 H6          0.8873    0.6129    2.3142 H         1 MOL         0.1108
@<TRIPOS>BOND
     1    1    3 1
     2    2    3 1
     3    2   10 1
     4    3   11 1
     5    4    6 1
     6    4    7 2
     7    4   10 1
     8    5    8 1
     9    5    9 2
    10    5   11 1
    11    1   12 1
    12    1   13 1
    13    1   14 1
    14    2   15 1
    15    2   16 1
    16    3   17 1
