@<TRIPOS>MOLECULE
4_methylpentan_2_ol
   21    20     0     0     0
SMALL
USER_CHARGES

@<TRIPOS>ATOM
      1 C1         -1.0908   -0.8788   -2.1936 C.3       1 MOL        -0.0875
      2 C2         -1.0610    0.5650   -0.1496 C.3       1 MOL        -0.0875
      3 C3          1.9552    2.3018   -3.0394 C.3       1 MOL        -0.1281
      4 C4         -0.3932    1.5685   -2.3523 C.3       1 MOL        -0.0817
      5 C5         -1.3046    0.5383   -1.6612 C.3       1 MOL        -0.0627
      6 C6          1.1132    1.2947   -2.2678 C.3       1 MOL         0.1427
      7 O1          1.4812    1.3583   -0.8884 O.3       1 MOL        -0.6028
      8 H1         -0.0426   -1.1828   -2.1035 H         1 MOL         0.0333
      9 H2         -1.3800   -0.9565   -3.2459 H         1 MOL         0.0333
     10 H3         -1.7003   -1.5988   -1.6366 H         1 MOL         0.0333
     11 H4         -1.2457    1.5650    0.2569 H         1 MOL         0.0333
     12 H5         -1.7313   -0.1320    0.3646 H         1 MOL         0.0333
     13 H6         -0.0301    0.2849    0.0928 H         1 MOL         0.0333
     14 H7          1.7513    3.3232   -2.7000 H         1 MOL         0.0415
     15 H8          3.0217    2.1215   -2.8656 H         1 MOL         0.0415
     16 H9          1.7730    2.2450   -4.1159 H         1 MOL         0.0415
     17 H10        -0.5859    2.5666   -1.9347 H         1 MOL         0.0484
     18 H11        -0.6765    1.6478   -3.4111 H         1 MOL         0.0484
     19 H12        -2.3523    0.8149   -1.8277 H         1 MOL         0.0461
     20 H13         1.3352    0.2794   -2.6120 H         1 MOL         0.0432
     21 H14         2.1974    2.0076   -0.8273 H         1 MOL         0.3972
@<TRIPOS>BOND
     1    1    5 1
     2    2    5 1
     3    3    6 1
     4    4    5 1
     5    4    6 1
     6    6    7 1
     7    1    8 1
     8    1    9 1
     9    1   10 1
    10    2   11 1
    11    2   12 1
    12    2   13 1
    13    3   14 1
    14    3   15 1
    15    3   16 1
    16    4   17 1
    17    4   18 1
    18    5   19 1
    19    6   20 1
    20    7   21 1
