@<TRIPOS>MOLECULE
4_ethyltoluene
   21    21     0     0     0
SMALL
USER_CHARGES

@<TRIPOS>ATOM
      1 C1          0.8178   -0.4385    0.5644 C.ar      1 MOL        -0.1288
      2 C2          2.9371   -1.5972    0.6197 C.ar      1 MOL        -0.1288
      3 C3          0.7994   -0.4058    1.9588 C.ar      1 MOL        -0.1243
      4 C4          2.9185   -1.5646    2.0141 C.ar      1 MOL        -0.1243
      5 C5          1.8867   -1.0341   -0.1051 C.ar      1 MOL        -0.0710
      6 C6          1.8497   -0.9689    2.6836 C.ar      1 MOL        -0.0724
      7 C7          1.9062   -1.0696   -1.5957 C.3       1 MOL        -0.0595
      8 C8          2.4999    0.3184    4.7347 C.3       1 MOL        -0.0862
      9 C9          1.8300   -0.9337    4.1742 C.3       1 MOL        -0.0449
     10 H1         -0.0047    0.0028    0.0080 H         1 MOL         0.1298
     11 H2          3.7741   -2.0633    0.1065 H         1 MOL         0.1298
     12 H3         -0.0371    0.0613    2.4718 H         1 MOL         0.1300
     13 H4          3.7414   -2.0053    2.5707 H         1 MOL         0.1300
     14 H5          2.1012   -2.0889   -1.9512 H         1 MOL         0.0423
     15 H6          0.9494   -0.7321   -2.0151 H         1 MOL         0.0423
     16 H7          2.6817   -0.4060   -2.0001 H         1 MOL         0.0423
     17 H8          3.5487    0.3751    4.4243 H         1 MOL         0.0348
     18 H9          2.4697    0.3175    5.8287 H         1 MOL         0.0348
     19 H10         1.9957    1.2246    4.3821 H         1 MOL         0.0348
     20 H11         0.7940   -0.9844    4.5462 H         1 MOL         0.0446
     21 H12         2.3309   -1.8247    4.5863 H         1 MOL         0.0446
@<TRIPOS>BOND
     1    1    3 ar
     2    1    5 ar
     3    2    4 ar
     4    2    5 ar
     5    3    6 ar
     6    4    6 ar
     7    5    7 1
     8    6    9 1
     9    8    9 1
    10    1   10 1
    11    2   11 1
    12    3   12 1
    13    4   13 1
    14    7   14 1
    15    7   15 1
    16    7   16 1
    17    8   17 1
    18    8   18 1
    19    8   19 1
    20    9   20 1
    21    9   21 1
