@<TRIPOS>MOLECULE
cyclohexanol
   19    19     0     0     0
SMALL
USER_CHARGES

@<TRIPOS>ATOM
      1 C1          0.8595   -0.5761   -0.3646 C.3       1 MOL        -0.0753
      2 C2          1.9981   -0.4824    0.6484 C.3       1 MOL        -0.0723
      3 C3          1.2772   -0.0492   -1.7356 C.3       1 MOL        -0.0723
      4 C4          2.5549    0.9347    0.7374 C.3       1 MOL        -0.0907
      5 C5          1.8340    1.3679   -1.6464 C.3       1 MOL        -0.0907
      6 C6          2.9750    1.4610   -0.6344 C.3       1 MOL         0.1440
      7 O1          3.4005    2.8144   -0.5171 O.3       1 MOL        -0.6026
      8 H1          0.5302   -1.6174   -0.4543 H         1 MOL         0.0389
      9 H2          0.0002    0.0001   -0.0001 H         1 MOL         0.0389
     10 H3          1.6422   -0.8020    1.6343 H         1 MOL         0.0411
     11 H4          2.8007   -1.1719    0.3589 H         1 MOL         0.0411
     12 H5          2.0374   -0.7133   -2.1649 H         1 MOL         0.0411
     13 H6          0.4173   -0.0659   -2.4148 H         1 MOL         0.0411
     14 H7          1.8037    1.6047    1.1756 H         1 MOL         0.0475
     15 H8          3.4111    0.9603    1.4222 H         1 MOL         0.0475
     16 H9          2.1840    1.6982   -2.6319 H         1 MOL         0.0475
     17 H10         1.0346    2.0661   -1.3659 H         1 MOL         0.0475
     18 H11         3.8325    0.8833   -0.9988 H         1 MOL         0.0297
     19 H12         3.9384    3.0055   -1.3016 H         1 MOL         0.3981
@<TRIPOS>BOND
     1    1    2 1
     2    1    3 1
     3    2    4 1
     4    3    5 1
     5    4    6 1
     6    5    6 1
     7    6    7 1
     8    1    8 1
     9    1    9 1
    10    2   10 1
    11    2   11 1
    12    3   12 1
    13    3   13 1
    14    4   14 1
    15    4   15 1
    16    5   16 1
    17    5   17 1
    18    6   18 1
    19    7   19 1
