@<TRIPOS>MOLECULE
p_toluidine
   17    17     0     0     0
SMALL
USER_CHARGES

@<TRIPOS>ATOM
      1 C1          0.8178   -0.4385    0.5644 C.ar      1 MOL        -0.0933
      2 C2          2.9371   -1.5972    0.6197 C.ar      1 MOL        -0.0933
      3 C3          0.7994   -0.4058    1.9588 C.ar      1 MOL        -0.1876
      4 C4          2.9185   -1.5646    2.0141 C.ar      1 MOL        -0.1876
      5 C5          1.8867   -1.0341   -0.1051 C.ar      1 MOL        -0.1115
      6 C6          1.8497   -0.9689    2.6836 C.ar      1 MOL         0.1344
      7 C7          1.9064   -1.0687   -1.5959 C.3       1 MOL        -0.0518
      8 N1          1.8308   -0.9367    4.0937 N.pl3     1 MOL        -0.8211
      9 H1         -0.0050    0.0025    0.0079 H         1 MOL         0.1290
     10 H2          3.7741   -2.0634    0.1065 H         1 MOL         0.1290
     11 H3         -0.0386    0.0602    2.4706 H         1 MOL         0.1303
     12 H4          3.7422   -2.0063    2.5690 H         1 MOL         0.1303
     13 H5          2.1012   -2.0878   -1.9518 H         1 MOL         0.0392
     14 H6          0.9497   -0.7308   -2.0151 H         1 MOL         0.0392
     15 H7          2.6821   -0.4049   -1.9996 H         1 MOL         0.0392
     16 H8          2.4295   -1.5542    4.6037 H         1 MOL         0.3877
     17 H9          1.1540   -0.3666    4.5592 H         1 MOL         0.3877
@<TRIPOS>BOND
     1    1    3 ar
     2    1    5 ar
     3    2    4 ar
     4    2    5 ar
     5    3    6 ar
     6    4    6 ar
     7    5    7 1
     8    6    8 1
     9    1    9 1
    10    2   10 1
    11    3   11 1
    12    4   12 1
    13    7   13 1
    14    7   14 1
    15    7   15 1
    16    8   16 1
    17    8   17 1
