@<TRIPOS>MOLECULE
13_dimethylnaphthalene
   24    25     0     0     0
SMALL
USER_CHARGES

@<TRIPOS>ATOM
      1 C1          0.3475   -1.0287    0.0273 C.ar      1 MOL        -0.1277
      2 C2         -0.5379   -2.0542    0.3453 C.ar      1 MOL        -0.1305
      3 C3          1.6819   -1.3207   -0.2566 C.ar      1 MOL        -0.1193
      4 C4         -0.0923   -3.3759    0.3807 C.ar      1 MOL        -0.1174
      5 C5          3.4874   -2.9576   -0.5088 C.ar      1 MOL        -0.1247
      6 C6          3.0475   -5.3048   -0.1554 C.ar      1 MOL        -0.1295
      7 C7          2.1477   -2.6453   -0.2257 C.ar      1 MOL        -0.0302
      8 C8          1.2474   -3.6882    0.0977 C.ar      1 MOL        -0.0359
      9 C9          3.9329   -4.2793   -0.4735 C.ar      1 MOL        -0.0615
     10 C10         1.7132   -5.0127    0.1285 C.ar      1 MOL        -0.0518
     11 C11         5.3590   -4.5931   -0.7775 C.3       1 MOL        -0.0606
     12 C12         0.8141   -6.1627    0.4635 C.3       1 MOL        -0.0622
     13 H1         -0.0001   -0.0000   -0.0012 H         1 MOL         0.1311
     14 H2         -1.5766   -1.8262    0.5659 H         1 MOL         0.1307
     15 H3          2.3560   -0.5030   -0.5035 H         1 MOL         0.1314
     16 H4         -0.8141   -4.1489    0.6335 H         1 MOL         0.1320
     17 H5          4.1903   -2.1650   -0.7598 H         1 MOL         0.1319
     18 H6          3.3979   -6.3342   -0.1287 H         1 MOL         0.1312
     19 H7          5.9848   -4.4204    0.1066 H         1 MOL         0.0434
     20 H8          5.4789   -5.6385   -1.0899 H         1 MOL         0.0434
     21 H9          5.7374   -3.9707   -1.5989 H         1 MOL         0.0434
     22 H10         1.1584   -6.6545    1.3789 H         1 MOL         0.0442
     23 H11        -0.2172   -5.8242    0.6111 H         1 MOL         0.0442
     24 H12         0.7993   -6.8983   -0.3483 H         1 MOL         0.0442
@<TRIPOS>BOND
     1    1    2 ar
     2    1    3 ar
     3    2    4 ar
     4    3    7 ar
     5    4    8 ar
     6    5    7 ar
     7    5    9 ar
     8    6    9 ar
     9    6   10 ar
    10    7    8 ar
    11    8   10 ar
    12    9   11 1
    13   10   12 1
    14    1   13 1
    15    2   14 1
    16    3   15 1
    17    4   16 1
    18    5   17 1
    19    6   18 1
    20   11   19 1
    21   11   20 1
    22   11   21 1
    23   12   22 1
    24   12   23 1
    25   12   24 1
