@<TRIPOS>MOLECULE
Z_12_dichloroethene
    6     5     0     0     0
SMALL
USER_CHARGES

@<TRIPOS>ATOM
      1 C1          2.0175   -0.6856   -0.1987 C.2       1 MOL        -0.0745
      2 C2          0.7545   -0.5145   -0.5799 C.2       1 MOL        -0.0745
      3 Cl1         2.6207   -0.0983    1.2927 Cl        1 MOL        -0.0862
      4 Cl2        -0.3985    0.3104    0.3811 Cl        1 MOL        -0.0862
      5 H1          2.7721   -1.2008   -0.7782 H         1 MOL         0.1607
      6 H2          0.3385   -0.8711   -1.5127 H         1 MOL         0.1607
@<TRIPOS>BOND
     1    1    2 2
     2    1    3 1
     3    2    4 1
     4    1    5 1
     5    2    6 1
