@<TRIPOS>MOLECULE
methyl_tert_butyl_ether
   18    17     0     0     0
SMALL
USER_CHARGES

@<TRIPOS>ATOM
      1 C1         -0.4645   -0.0646    0.9894 C.3       1 MOL        -0.1047
      2 C2          1.6273    0.6910    2.1567 C.3       1 MOL        -0.1047
      3 C3          1.2036   -1.7604    1.8118 C.3       1 MOL        -0.1047
      4 C4         -1.1266   -1.4328    3.3392 C.3       1 MOL         0.1211
      5 C5          0.5609   -0.3988    2.0719 C.3       1 MOL         0.1480
      6 O1         -0.1082   -0.4451    3.3327 O.3       1 MOL        -0.4201
      7 H1         -0.9608    0.8886    1.2038 H         1 MOL         0.0417
      8 H2          0.0000    0.0000    0.0000 H         1 MOL         0.0417
      9 H3         -1.2548   -0.8231    0.9519 H         1 MOL         0.0417
     10 H4          2.3378    0.4796    2.9640 H         1 MOL         0.0417
     11 H5          1.1755    1.6620    2.3896 H         1 MOL         0.0417
     12 H6          2.1853    0.7842    1.2194 H         1 MOL         0.0417
     13 H7          0.4460   -2.5520    1.7867 H         1 MOL         0.0417
     14 H8          1.7494   -1.7742    0.8629 H         1 MOL         0.0417
     15 H9          1.8988   -2.0233    2.6173 H         1 MOL         0.0417
     16 H10        -0.7746   -2.3166    3.8769 H         1 MOL         0.0300
     17 H11        -1.3850   -1.6977    2.3109 H         1 MOL         0.0300
     18 H12        -2.0089   -1.0303    3.8424 H         1 MOL         0.0300
@<TRIPOS>BOND
     1    1    5 1
     2    2    5 1
     3    3    5 1
     4    4    6 1
     5    5    6 1
     6    1    7 1
     7    1    8 1
     8    1    9 1
     9    2   10 1
    10    2   11 1
    11    2   12 1
    12    3   13 1
    13    3   14 1
    14    3   15 1
    15    4   16 1
    16    4   17 1
    17    4   18 1
