@<TRIPOS>MOLECULE
benzyl_alcohol
   16    16     0     0     0
SMALL
USER_CHARGES

@<TRIPOS>ATOM
      1 C1          1.8846   -1.0376   -0.1090 C.ar      1 MOL        -0.1215
      2 C2          0.8176   -0.4410    0.5626 C.ar      1 MOL        -0.1327
      3 C3          2.9348   -1.6038    0.6137 C.ar      1 MOL        -0.1327
      4 C4          0.8008   -0.4105    1.9570 C.ar      1 MOL        -0.1125
      5 C5          2.9180   -1.5734    2.0082 C.ar      1 MOL        -0.1125
      6 C6          1.8509   -0.9767    2.6799 C.ar      1 MOL        -0.1266
      7 C7          1.8328   -0.9437    4.1709 C.3       1 MOL         0.1670
      8 O1          2.4730    0.2424    4.6249 O.3       1 MOL        -0.5964
      9 H1          1.8979   -1.0612   -1.1948 H         1 MOL         0.1325
     10 H2          0.0002    0.0000   -0.0002 H         1 MOL         0.1331
     11 H3          3.7655   -2.0682    0.0906 H         1 MOL         0.1331
     12 H4         -0.0347    0.0567    2.4718 H         1 MOL         0.1345
     13 H5          3.7404   -2.0171    2.5631 H         1 MOL         0.1345
     14 H6          0.8054   -0.9589    4.5597 H         1 MOL         0.0491
     15 H7          2.3572   -1.8117    4.5934 H         1 MOL         0.0491
     16 H8          2.4691    0.8644    3.8798 H         1 MOL         0.4020
@<TRIPOS>BOND
     1    1    2 ar
     2    1    3 ar
     3    2    4 ar
     4    3    5 ar
     5    4    6 ar
     6    5    6 ar
     7    6    7 1
     8    7    8 1
     9    1    9 1
    10    2   10 1
    11    3   11 1
    12    4   12 1
    13    5   13 1
    14    7   14 1
    15    7   15 1
    16    8   16 1
