@<TRIPOS>MOLECULE
3_methylbutan_2_one
   16    15     0     0     0
SMALL
USER_CHARGES

@<TRIPOS>ATOM
      1 C1         -0.0457    2.1350   -0.1210 C.2       1 MOL         0.5612
      2 C2          0.1910    0.8581    0.6456 C.3       1 MOL        -0.1969
      3 C3          1.7494    3.8113    0.3319 C.3       1 MOL        -0.0841
      4 C4         -0.6398    4.5643    0.1508 C.3       1 MOL        -0.0841
      5 C5          0.2943    3.4405    0.5922 C.3       1 MOL        -0.1647
      6 O1         -0.4680    2.1055   -1.2770 O.2       1 MOL        -0.5292
      7 H1          1.2617    0.7110    0.8031 H         1 MOL         0.0625
      8 H2         -0.2031    0.0111    0.0766 H         1 MOL         0.0625
      9 H3         -0.3303    0.9022    1.6050 H         1 MOL         0.0625
     10 H4          1.9430    3.9297   -0.7400 H         1 MOL         0.0406
     11 H5          2.0090    4.7501    0.8322 H         1 MOL         0.0406
     12 H6          2.4273    3.0362    0.7039 H         1 MOL         0.0406
     13 H7         -1.6867    4.2866    0.3144 H         1 MOL         0.0406
     14 H8         -0.5200    4.7914   -0.9143 H         1 MOL         0.0406
     15 H9         -0.4403    5.4802    0.7167 H         1 MOL         0.0406
     16 H10         0.1432    3.2810    1.6665 H         1 MOL         0.0668
@<TRIPOS>BOND
     1    1    2 1
     2    1    5 1
     3    1    6 2
     4    3    5 1
     5    4    5 1
     6    2    7 1
     7    2    8 1
     8    2    9 1
     9    3   10 1
    10    3   11 1
    11    3   12 1
    12    4   13 1
    13    4   14 1
    14    4   15 1
    15    5   16 1
