@<TRIPOS>MOLECULE
isobutylbenzene
   24    24     0     0     0
SMALL
USER_CHARGES

@<TRIPOS>ATOM
      1 C1         -2.3834    3.1744   -2.0958 C.ar      1 MOL        -0.1335
      2 C2         -1.0115    2.9508   -1.9809 C.ar      1 MOL        -0.1291
      3 C3         -3.2038    3.0685   -0.9726 C.ar      1 MOL        -0.1291
      4 C4         -0.4598    2.6212   -0.7429 C.ar      1 MOL        -0.1280
      5 C5         -2.6522    2.7391    0.2655 C.ar      1 MOL        -0.1280
      6 C6         -1.2871    2.5197    0.3646 C.ar      1 MOL        -0.0637
      7 C7         -2.0273    0.0017    1.8759 C.3       1 MOL        -0.0884
      8 C8          0.3173   -0.0296    1.0009 C.3       1 MOL        -0.0884
      9 C9         -0.6900    2.1628    1.7040 C.3       1 MOL        -0.0409
     10 C10        -0.6434    0.6475    1.9816 C.3       1 MOL        -0.0599
     11 H1         -2.8130    3.4308   -3.0598 H         1 MOL         0.1298
     12 H2         -0.3728    3.0330   -2.8556 H         1 MOL         0.1296
     13 H3         -4.2720    3.2426   -1.0623 H         1 MOL         0.1296
     14 H4          0.6103    2.4486   -0.6630 H         1 MOL         0.1308
     15 H5         -3.2990    2.6590    1.1352 H         1 MOL         0.1308
     16 H6         -2.4722    0.1745    0.8900 H         1 MOL         0.0343
     17 H7         -2.7109    0.3989    2.6327 H         1 MOL         0.0343
     18 H8         -1.9626   -1.0806    2.0315 H         1 MOL         0.0343
     19 H9          0.3859   -1.1039    1.2022 H         1 MOL         0.0343
     20 H10        -0.0146    0.1006   -0.0349 H         1 MOL         0.0343
     21 H11         1.3247    0.3905    1.0902 H         1 MOL         0.0343
     22 H12         0.3182    2.5893    1.7889 H         1 MOL         0.0458
     23 H13        -1.2868    2.6637    2.4783 H         1 MOL         0.0458
     24 H14        -0.2628    0.4721    2.9960 H         1 MOL         0.0413
@<TRIPOS>BOND
     1    1    2 ar
     2    1    3 ar
     3    2    4 ar
     4    3    5 ar
     5    4    6 ar
     6    5    6 ar
     7    6    9 1
     8    7   10 1
     9    8   10 1
    10    9   10 1
    11    1   11 1
    12    2   12 1
    13    3   13 1
    14    4   14 1
    15    5   15 1
    16    7   16 1
    17    7   17 1
    18    7   18 1
    19    8   19 1
    20    8   20 1
    21    8   21 1
    22    9   22 1
    23    9   23 1
    24   10   24 1
