@<TRIPOS>MOLECULE
butan_2_ol
   15    14     0     0     0
SMALL
USER_CHARGES

@<TRIPOS>ATOM
      1 C1          0.9784   -0.0326   -0.2360 C.3       1 MOL        -0.0892
      2 C2          1.0608    0.9421   -3.9925 C.3       1 MOL        -0.1147
      3 C3          1.4098    0.6794   -1.5114 C.3       1 MOL        -0.0867
      4 C4          0.6395    0.1877   -2.7386 C.3       1 MOL         0.1416
      5 O1         -0.7550    0.3897   -2.5267 O.3       1 MOL        -0.6029
      6 H1          1.1283   -1.1135   -0.3220 H         1 MOL         0.0357
      7 H2         -0.0769    0.1525   -0.0129 H         1 MOL         0.0357
      8 H3          1.5693    0.3248    0.6135 H         1 MOL         0.0357
      9 H4          0.8498    2.0129   -3.8954 H         1 MOL         0.0421
     10 H5          2.1277    0.8107   -4.1965 H         1 MOL         0.0421
     11 H6          0.4950    0.5881   -4.8611 H         1 MOL         0.0421
     12 H7          2.4847    0.5237   -1.6590 H         1 MOL         0.0465
     13 H8          1.2456    1.7551   -1.3741 H         1 MOL         0.0465
     14 H9          0.8085   -0.8858   -2.8804 H         1 MOL         0.0268
     15 H10        -1.1024    0.7927   -3.3376 H         1 MOL         0.3986
@<TRIPOS>BOND
     1    1    3 1
     2    2    4 1
     3    3    4 1
     4    4    5 1
     5    1    6 1
     6    1    7 1
     7    1    8 1
     8    2    9 1
     9    2   10 1
    10    2   11 1
    11    3   12 1
    12    3   13 1
    13    4   14 1
    14    5   15 1
