@<TRIPOS>MOLECULE
trimethoxy_methane
   17    16     0     0     0
SMALL
USER_CHARGES

@<TRIPOS>ATOM
      1 C1         -0.1608   -1.3926   -1.8317 C.3       1 MOL         0.1298
      2 C2          1.0963   -0.0528   -4.6789 C.3       1 MOL         0.1298
      3 C3         -1.0435    2.6425   -2.2620 C.3       1 MOL         0.1298
      4 C4         -0.6863    0.4751   -3.1994 C.3       1 MOL         0.5099
      5 O1          0.0234    0.0004   -2.0470 O.3       1 MOL        -0.4437
      6 O2         -0.2849   -0.2223   -4.3889 O.3       1 MOL        -0.4437
      7 O3         -0.5679    1.8974   -3.3756 O.3       1 MOL        -0.4437
      8 H1         -0.2482   -1.5879   -0.7601 H         1 MOL         0.0402
      9 H2          0.6892   -1.9416   -2.2448 H         1 MOL         0.0402
     10 H3         -1.0771   -1.7118   -2.3339 H         1 MOL         0.0402
     11 H4          1.2077    0.5000   -5.6150 H         1 MOL         0.0402
     12 H5          1.5748   -1.0318   -4.7624 H         1 MOL         0.0402
     13 H6          1.5633    0.5109   -3.8678 H         1 MOL         0.0402
     14 H7         -0.8387    3.7043   -2.4188 H         1 MOL         0.0402
     15 H8         -0.5480    2.2954   -1.3518 H         1 MOL         0.0402
     16 H9         -2.1215    2.4917   -2.1677 H         1 MOL         0.0402
     17 H10        -1.7581    0.2871   -3.0579 H         1 MOL         0.0703
@<TRIPOS>BOND
     1    1    5 1
     2    2    6 1
     3    3    7 1
     4    4    5 1
     5    4    6 1
     6    4    7 1
     7    1    8 1
     8    1    9 1
     9    1   10 1
    10    2   11 1
    11    2   12 1
    12    2   13 1
    13    3   14 1
    14    3   15 1
    15    3   16 1
    16    4   17 1
