@<TRIPOS>MOLECULE
hydrogen_sulfide
    3     2     0     0     0
SMALL
USER_CHARGES

@<TRIPOS>ATOM
      1 S1         -0.8869    0.2325    0.9787 S.3       1 MOL        -0.4391
      2 H1         -0.4014    1.4557    1.2363 H         1 MOL         0.2195
      3 H2          0.0000   -0.0000    0.0000 H         1 MOL         0.2195
@<TRIPOS>BOND
     1    1    2 1
     2    1    3 1
