@<TRIPOS>MOLECULE
1,2,3,4,5-pentachloro-6-(2,3,4,5,6-pentachlorophenyl)benzene
   22    23     0     0     0
SMALL
USER_CHARGES

@<TRIPOS>ATOM
      1 C1          1.8851   -1.0363   -0.1124 C.ar      1 MOL        -0.0280
      2 C2          1.9292   -1.0158   -1.5692 C.ar      1 MOL        -0.0281
      3 C3          0.8066   -0.4630    0.5610 C.ar      1 MOL         0.0526
      4 C4          2.9210   -1.6309    0.6081 C.ar      1 MOL         0.0528
      5 C5          2.5328    0.0516   -2.2340 C.ar      1 MOL         0.0532
      6 C6          1.3692   -2.0647   -2.2986 C.ar      1 MOL         0.0521
      7 C7          0.7638   -0.4841    1.9551 C.ar      1 MOL         0.0157
      8 C8          2.8783   -1.6520    2.0022 C.ar      1 MOL         0.0155
      9 C9          2.5762    0.0702   -3.6280 C.ar      1 MOL         0.0161
     10 C10         1.4126   -2.0461   -3.6926 C.ar      1 MOL         0.0153
     11 C11         1.7997   -1.0786    2.6757 C.ar      1 MOL         0.0375
     12 C12         2.0162   -0.9786   -4.3574 C.ar      1 MOL         0.0378
     13 Cl1        -0.4830    0.2773   -0.3508 Cl        1 MOL        -0.0330
     14 Cl2         4.2636   -2.3453   -0.2451 Cl        1 MOL        -0.0333
     15 Cl3         3.2300    1.3574   -1.3113 Cl        1 MOL        -0.0333
     16 Cl4         0.6184   -3.3942   -1.4562 Cl        1 MOL        -0.0310
     17 Cl5        -0.5846    0.2338    2.7946 Cl        1 MOL        -0.0272
     18 Cl6         4.1753   -2.3942    2.9003 Cl        1 MOL        -0.0272
     19 Cl7         3.3301    1.4058   -4.4567 Cl        1 MOL        -0.0273
     20 Cl8         0.7102   -3.3576   -4.6016 Cl        1 MOL        -0.0271
     21 Cl9         1.7475   -1.1035    4.4183 Cl        1 MOL        -0.0259
     22 Cl10        2.0686   -0.9547   -6.1000 Cl        1 MOL        -0.0270
@<TRIPOS>BOND
     1    1    2 1
     2    1    3 ar
     3    1    4 ar
     4    2    5 ar
     5    2    6 ar
     6    3    7 ar
     7    3   13 1
     8    4    8 ar
     9    4   14 1
    10    5    9 ar
    11    5   15 1
    12    6   10 ar
    13    6   16 1
    14    7   11 ar
    15    7   17 1
    16    8   11 ar
    17    8   18 1
    18    9   12 ar
    19    9   19 1
    20   10   12 ar
    21   10   20 1
    22   11   21 1
    23   12   22 1
