@<TRIPOS>MOLECULE
2_methylthiophene
   12    12     0     0     0
SMALL
USER_CHARGES

@<TRIPOS>ATOM
      1 C1         -0.0619    0.6736   -2.1200 C.2       1 MOL        -0.1540
      2 C2         -0.3790   -0.1513   -1.0023 C.2       1 MOL        -0.1602
      3 C3         -0.6859    0.2469   -3.2715 C.2       1 MOL        -0.1665
      4 C4         -1.2335   -1.1769   -1.3423 C.2       1 MOL        -0.0921
      5 C5         -1.7911   -2.2366   -0.4737 C.3       1 MOL        -0.0301
      6 S1         -1.6496   -1.1428   -3.0031 S.3       1 MOL        -0.0051
      7 H1          0.5912    1.5357   -2.0817 H         1 MOL         0.1516
      8 H2          0.0021    0.0035   -0.0008 H         1 MOL         0.1517
      9 H3         -0.6216    0.6848   -4.2576 H         1 MOL         0.1691
     10 H4         -1.1749   -2.3706    0.4292 H         1 MOL         0.0452
     11 H5         -2.8165   -2.0097   -0.1400 H         1 MOL         0.0452
     12 H6         -1.8391   -3.2099   -0.9882 H         1 MOL         0.0452
@<TRIPOS>BOND
     1    1    2 1
     2    1    3 2
     3    2    4 2
     4    3    6 1
     5    4    5 1
     6    4    6 1
     7    1    7 1
     8    2    8 1
     9    3    9 1
    10    5   10 1
    11    5   11 1
    12    5   12 1
