@<TRIPOS>MOLECULE
propene
    9     8     0     0     0
SMALL
USER_CHARGES

@<TRIPOS>ATOM
      1 C1          0.8212   -0.6789   -0.2025 C.2       1 MOL        -0.2259
      2 C2          1.3491   -1.4450    0.7582 C.2       1 MOL        -0.1669
      3 C3          0.8797   -1.4501    2.1744 C.3       1 MOL        -0.0635
      4 H1          1.2086   -0.7222   -1.2145 H         1 MOL         0.1102
      5 H2          0.0000    0.0000    0.0000 H         1 MOL         0.1102
      6 H3          2.1710   -2.1092    0.5059 H         1 MOL         0.1165
      7 H4          0.5430   -2.4536    2.4520 H         1 MOL         0.0399
      8 H5          0.0509   -0.7544    2.3386 H         1 MOL         0.0399
      9 H6          1.7004   -1.1661    2.8401 H         1 MOL         0.0399
@<TRIPOS>BOND
     1    1    2 2
     2    2    3 1
     3    1    4 1
     4    1    5 1
     5    2    6 1
     6    3    7 1
     7    3    8 1
     8    3    9 1
