@<TRIPOS>MOLECULE
dimethyl_sulfide
    9     8     0     0     0
SMALL
USER_CHARGES

@<TRIPOS>ATOM
      1 C1          0.9856   -0.3289    0.3401 C.3       1 MOL        -0.0418
      2 C2          2.8855   -0.4869    2.3101 C.3       1 MOL        -0.0418
      3 S1          1.2245    0.1824    2.0582 S.3       1 MOL        -0.2821
      4 H1          1.9248   -0.2334   -0.2103 H         1 MOL         0.0610
      5 H2          0.2295    0.3024   -0.1332 H         1 MOL         0.0610
      6 H3          0.6550   -1.3698    0.3052 H         1 MOL         0.0610
      7 H4          3.6329    0.2745    2.0739 H         1 MOL         0.0610
      8 H5          3.0398   -1.3515    1.6598 H         1 MOL         0.0610
      9 H6          3.0070   -0.7963    3.3510 H         1 MOL         0.0610
@<TRIPOS>BOND
     1    1    3 1
     2    2    3 1
     3    1    4 1
     4    1    5 1
     5    1    6 1
     6    2    7 1
     7    2    8 1
     8    2    9 1
