@<TRIPOS>MOLECULE
nonan_5_one
   28    27     0     0     0
SMALL
USER_CHARGES

@<TRIPOS>ATOM
      1 C1          0.2374   -2.1823   -4.7279 C.2       1 MOL         0.5603
      2 C2         -1.1644   -0.3042   -0.2486 C.3       1 MOL        -0.0892
      3 C3          1.5236   -4.3444   -9.1384 C.3       1 MOL        -0.0892
      4 C4         -0.6041   -1.1539   -3.9880 C.3       1 MOL        -0.1787
      5 C5          0.0827   -2.1870   -6.2421 C.3       1 MOL        -0.1787
      6 C6         -1.3117   -0.2088   -1.7588 C.3       1 MOL        -0.0802
      7 C7          0.7125   -3.2491   -8.4638 C.3       1 MOL        -0.0802
      8 C8         -0.4246   -1.2272   -2.4734 C.3       1 MOL        -0.0703
      9 C9          0.8880   -3.2797   -6.9435 C.3       1 MOL        -0.0703
     10 O1          0.9705   -2.9753   -4.1394 O.2       1 MOL        -0.5283
     11 H1         -1.8048    0.4354    0.2422 H         1 MOL         0.0321
     12 H2         -0.1306   -0.1150    0.0575 H         1 MOL         0.0321
     13 H3         -1.4535   -1.2966    0.1118 H         1 MOL         0.0321
     14 H4          1.3790   -4.3096  -10.2228 H         1 MOL         0.0321
     15 H5          2.5920   -4.2234   -8.9338 H         1 MOL         0.0321
     16 H6          1.2157   -5.3342   -8.7867 H         1 MOL         0.0321
     17 H7         -0.3149   -0.1605   -4.3485 H         1 MOL         0.0623
     18 H8         -1.6538   -1.3288   -4.2489 H         1 MOL         0.0623
     19 H9          0.3721   -1.2032   -6.6272 H         1 MOL         0.0623
     20 H10        -0.9826   -2.3357   -6.4525 H         1 MOL         0.0623
     21 H11        -1.0497    0.8052   -2.0824 H         1 MOL         0.0418
     22 H12        -2.3611   -0.3751   -2.0286 H         1 MOL         0.0418
     23 H13        -0.3459   -3.3795   -8.7178 H         1 MOL         0.0418
     24 H14         1.0234   -2.2785   -8.8653 H         1 MOL         0.0418
     25 H15         0.6267   -1.0462   -2.2173 H         1 MOL         0.0489
     26 H16        -0.6652   -2.2380   -2.1212 H         1 MOL         0.0489
     27 H17         0.5496   -4.2535   -6.5686 H         1 MOL         0.0489
     28 H18         1.9510   -3.1926   -6.6884 H         1 MOL         0.0489
@<TRIPOS>BOND
     1    1    4 1
     2    1    5 1
     3    1   10 2
     4    2    6 1
     5    3    7 1
     6    4    8 1
     7    5    9 1
     8    6    8 1
     9    7    9 1
    10    2   11 1
    11    2   12 1
    12    2   13 1
    13    3   14 1
    14    3   15 1
    15    3   16 1
    16    4   17 1
    17    4   18 1
    18    5   19 1
    19    5   20 1
    20    6   21 1
    21    6   22 1
    22    7   23 1
    23    7   24 1
    24    8   25 1
    25    8   26 1
    26    9   27 1
    27    9   28 1
