@<TRIPOS>MOLECULE
1_nitropropane
   13    12     0     0     0
SMALL
USER_CHARGES

@<TRIPOS>ATOM
      1 C1         -0.2800   -0.7283    0.7679 C.3       1 MOL        -0.0998
      2 C2          0.5917   -0.5782    2.0042 C.3       1 MOL        -0.0888
      3 C3          0.4518    0.8068    2.6092 C.3       1 MOL        -0.0752
      4 N1          1.2713    0.8523    3.8316 N.pl3     1 MOL         0.2285
      5 O1          0.7255    0.5469    4.9065 O.3       1 MOL        -0.2111
      6 O2          2.4658    1.1767    3.7111 O.2       1 MOL        -0.2111
      7 H1         -1.3368   -0.5810    1.0130 H         1 MOL         0.0458
      8 H2          0.0000   -0.0000    0.0000 H         1 MOL         0.0458
      9 H3         -0.1663   -1.7306    0.3430 H         1 MOL         0.0458
     10 H4          1.6373   -0.7709    1.7332 H         1 MOL         0.0669
     11 H5          0.3111   -1.3440    2.7378 H         1 MOL         0.0669
     12 H6         -0.5736    1.0311    2.9136 H         1 MOL         0.0932
     13 H7          0.8308    1.5930    1.9514 H         1 MOL         0.0932
@<TRIPOS>BOND
     1    1    2 1
     2    2    3 1
     3    3    4 1
     4    4    5 1
     5    4    6 2
     6    1    7 1
     7    1    8 1
     8    1    9 1
     9    2   10 1
    10    2   11 1
    11    3   12 1
    12    3   13 1
