@<TRIPOS>MOLECULE
CUP08023_AM1BCC_v1_0
   40    41     0     0     0
SMALL
USER_CHARGES

@<TRIPOS>ATOM
      1 C1          5.9797   -9.8869   -4.1427 C.ar      1 MOL        -0.1130
      2 C2          6.7851   -9.7590   -2.9916 C.ar      1 MOL        -0.1130
      3 C3          5.3817   -8.7663   -4.7281 C.ar      1 MOL        -0.0571
      4 C4          7.0063   -8.5083   -2.4062 C.ar      1 MOL        -0.0571
      5 C5          5.6128   -7.5439   -4.1286 C.ar      1 MOL        -0.1341
      6 C6          6.4017   -7.4183   -3.0009 C.ar      1 MOL        -0.1341
      7 C7          5.1467   -6.2078   -4.4892 C.2       1 MOL         0.7327
      8 C8          6.4428   -6.0015   -2.6473 C.2       1 MOL         0.7327
      9 C9         -0.4152   -2.1294   -3.7797 C.3       1 MOL        -0.1205
     10 C10         2.2635   -5.0226    1.3353 C.3       1 MOL        -0.1205
     11 C11         0.2452   -3.1347   -2.8586 C.3       1 MOL         0.1462
     12 C12         2.4812   -5.4269   -0.1082 C.3       1 MOL         0.1462
     13 C13         6.7494   -3.1125   -3.7084 C.3       1 MOL         0.0261
     14 C14         5.4399   -3.9108   -3.6060 C.3       1 MOL         0.3613
     15 N1          5.6454   -5.3483   -3.5471 N.am      1 MOL        -0.5338
     16 O1          4.4577   -5.9620   -5.4608 O.2       1 MOL        -0.5576
     17 O2          7.1035   -5.5499   -1.7323 O.2       1 MOL        -0.5576
     18 O3          1.6534   -3.0078   -2.9850 O.3       1 MOL        -0.4841
     19 O4          1.9788   -4.3966   -0.9439 O.3       1 MOL        -0.4841
     20 P1          2.6073   -4.2019   -2.4301 P.3       1 MOL         0.8699
     21 S1          2.4872   -5.8077   -3.5311 S.2       1 MOL        -0.4465
     22 S2          4.4927   -3.3175   -2.1681 S.3       1 MOL        -0.5305
     23 Cl1         7.6498   -3.5309   -5.1979 Cl        1 MOL        -0.1869
     24 H1          5.8247  -10.8717   -4.5805 H         1 MOL         0.1478
     25 H2          7.2412  -10.6465   -2.5559 H         1 MOL         0.1478
     26 H3          4.7625   -8.8498   -5.6152 H         1 MOL         0.1617
     27 H4          7.6268   -8.3948   -1.5232 H         1 MOL         0.1617
     28 H5         -0.1066   -1.1105   -3.5264 H         1 MOL         0.0578
     29 H6         -0.1154   -2.3035   -4.8184 H         1 MOL         0.0578
     30 H7         -1.5046   -2.1940   -3.7107 H         1 MOL         0.0578
     31 H8          2.7889   -4.0876    1.5564 H         1 MOL         0.0578
     32 H9          1.2010   -4.8443    1.5308 H         1 MOL         0.0578
     33 H10         2.6230   -5.7986    2.0167 H         1 MOL         0.0578
     34 H11        -0.0762   -4.1460   -3.1227 H         1 MOL         0.0762
     35 H12        -0.0395   -2.9347   -1.8212 H         1 MOL         0.0762
     36 H13         1.9397   -6.3528   -0.3241 H         1 MOL         0.0762
     37 H14         3.5474   -5.5898   -0.2922 H         1 MOL         0.0762
     38 H15         6.5503   -2.0371   -3.7641 H         1 MOL         0.1091
     39 H16         7.4243   -3.2908   -2.8664 H         1 MOL         0.1091
     40 H17         4.8416   -3.6828   -4.4943 H         1 MOL         0.1267
@<TRIPOS>BOND
     1    1    2 ar
     2    1    3 ar
     3    2    4 ar
     4    3    5 ar
     5    4    6 ar
     6    5    6 ar
     7    5    7 1
     8    6    8 1
     9    7   15 am
    10    7   16 2
    11    8   15 am
    12    8   17 2
    13    9   11 1
    14   10   12 1
    15   11   18 1
    16   12   19 1
    17   13   14 1
    18   13   23 1
    19   14   15 1
    20   14   22 1
    21   18   20 1
    22   19   20 1
    23   20   21 2
    24   20   22 1
    25    1   24 1
    26    2   25 1
    27    3   26 1
    28    4   27 1
    29    9   28 1
    30    9   29 1
    31    9   30 1
    32   10   31 1
    33   10   32 1
    34   10   33 1
    35   11   34 1
    36   11   35 1
    37   12   36 1
    38   12   37 1
    39   13   38 1
    40   13   39 1
    41   14   40 1
