@<TRIPOS>MOLECULE
n_propyl_propanoate
   20    19     0     0     0
SMALL
USER_CHARGES

@<TRIPOS>ATOM
      1 C1         -1.6136    0.0807    4.3720 C.2       1 MOL         0.6301
      2 C2          0.0283   -1.8038    4.1101 C.3       1 MOL        -0.0895
      3 C3         -4.5262    3.9925    4.4227 C.3       1 MOL        -0.0891
      4 C4         -0.4896   -0.4939    3.5422 C.3       1 MOL        -0.1248
      5 C5         -3.4077    3.2177    3.7493 C.3       1 MOL        -0.0949
      6 C6         -3.0835    1.9309    4.4926 C.3       1 MOL         0.1406
      7 O1         -2.0821   -0.4341    5.3780 O.2       1 MOL        -0.5405
      8 O2         -2.0159    1.2612    3.8143 O.3       1 MOL        -0.4474
      9 H1         -0.7661   -2.5565    4.1505 H         1 MOL         0.0465
     10 H2          0.8392   -2.1950    3.4881 H         1 MOL         0.0465
     11 H3          0.4118   -1.6673    5.1267 H         1 MOL         0.0465
     12 H4         -4.2514    4.2679    5.4459 H         1 MOL         0.0360
     13 H5         -4.7379    4.9124    3.8688 H         1 MOL         0.0360
     14 H6         -5.4458    3.4000    4.4613 H         1 MOL         0.0360
     15 H7         -0.8598   -0.6610    2.5252 H         1 MOL         0.0758
     16 H8          0.3268    0.2354    3.5119 H         1 MOL         0.0758
     17 H9         -2.5086    3.8422    3.6853 H         1 MOL         0.0519
     18 H10        -3.6865    2.9847    2.7147 H         1 MOL         0.0519
     19 H11        -2.7664    2.1416    5.5190 H         1 MOL         0.0562
     20 H12        -3.9520    1.2650    4.5180 H         1 MOL         0.0562
@<TRIPOS>BOND
     1    1    4 1
     2    1    7 2
     3    1    8 1
     4    2    4 1
     5    3    5 1
     6    5    6 1
     7    6    8 1
     8    2    9 1
     9    2   10 1
    10    2   11 1
    11    3   12 1
    12    3   13 1
    13    3   14 1
    14    4   15 1
    15    4   16 1
    16    5   17 1
    17    5   18 1
    18    6   19 1
    19    6   20 1
