@<TRIPOS>MOLECULE
SAMPL4_046
   26    28     0     0     0
SMALL
USER_CHARGES

@<TRIPOS>ATOM
      1 C1          7.9850   -1.3100    3.4420 C.ar      1 MOL        -0.1190
      2 C2          7.5360   -0.0970    3.9590 C.ar      1 MOL        -0.1170
      3 C3          1.6750   -2.0370   -0.3310 C.ar      1 MOL        -0.0690
      4 C4          7.1790   -2.0390    2.5660 C.ar      1 MOL        -0.0860
      5 C5          6.2800    0.3940    3.6020 C.ar      1 MOL        -0.0880
      6 C6          2.9320   -2.5280    0.0260 C.ar      1 MOL        -0.1420
      7 C7          1.2270   -0.8230    0.1860 C.ar      1 MOL        -0.2000
      8 C8          5.9180   -1.5500    2.2050 C.ar      1 MOL        -0.1296
      9 C9          5.4680   -0.3340    2.7230 C.ar      1 MOL        -0.1246
     10 C10         3.7430   -1.8000    0.9050 C.ar      1 MOL        -0.0826
     11 C11         3.2940   -0.5840    1.4230 C.ar      1 MOL        -0.2196
     12 C12         2.0320   -0.0950    1.0620 C.ar      1 MOL         0.2326
     13 C13         5.0720   -2.3280    1.2770 C.2       1 MOL         0.5823
     14 C14         4.1400    0.1940    2.3510 C.2       1 MOL         0.6043
     15 N1          1.5090    1.1270    1.5440 N.pl3     1 MOL        -0.8462
     16 O1          5.4660   -3.3940    0.8230 O.2       1 MOL        -0.5221
     17 O2          3.7790    1.2640    2.8250 O.2       1 MOL        -0.5641
     18 H1          8.9630   -1.6900    3.7210 H         1 MOL         0.1410
     19 H2          8.1650    0.4680    4.6410 H         1 MOL         0.1400
     20 H3          1.0460   -2.6020   -1.0120 H         1 MOL         0.1400
     21 H4          7.5530   -2.9820    2.1760 H         1 MOL         0.1580
     22 H5          5.9550    1.3430    4.0200 H         1 MOL         0.1580
     23 H6          3.2590   -3.4760   -0.3910 H         1 MOL         0.1590
     24 H7          0.2450   -0.4550   -0.1020 H         1 MOL         0.1370
     25 H8          0.6220    1.4400    1.2100 H         1 MOL         0.4298
     26 H9          2.0770    1.6970    2.1350 H         1 MOL         0.4298
@<TRIPOS>BOND
     1    1    2 ar
     2    1    4 ar
     3    2    5 ar
     4    3    6 ar
     5    3    7 ar
     6    4    8 ar
     7    5    9 ar
     8    6   10 ar
     9    7   12 ar
    10    8    9 ar
    11    8   13 1
    12    9   14 1
    13   10   11 ar
    14   10   13 1
    15   11   12 ar
    16   11   14 1
    17   12   15 1
    18   13   16 2
    19   14   17 2
    20    1   18 1
    21    2   19 1
    22    3   20 1
    23    4   21 1
    24    5   22 1
    25    6   23 1
    26    7   24 1
    27   15   25 1
    28   15   26 1
