@<TRIPOS>MOLECULE
cf32ben.xyz	      0.0000000
   18    18     0     0     0
SMALL
USER_CHARGES

@<TRIPOS>ATOM
      1 C1          1.4013    2.3973   -0.0000 C.ar      1 MOL        -0.1366
      2 C2          2.0925    1.1897    0.0000 C.ar      1 MOL        -0.0491
      3 C3          0.0222    2.4049   -0.0000 C.ar      1 MOL        -0.0525
      4 C4          0.0000    0.0000    0.0000 C.ar      1 MOL        -0.0304
      5 C5          1.3920    0.0000    0.0000 C.ar      1 MOL        -0.2104
      6 C6         -0.6778    1.2007    0.0000 C.ar      1 MOL        -0.2090
      7 C7          2.1070   -1.3248   -0.0002 C.3       1 MOL         0.7338
      8 C8         -2.1827    1.2399   -0.0001 C.3       1 MOL         0.7340
      9 F1          1.7878   -2.0521    1.0618 F         1 MOL        -0.2320
     10 F2          3.4219   -1.1843    0.0017 F         1 MOL        -0.2330
     11 F3          1.7907   -2.0502   -1.0644 F         1 MOL        -0.2320
     12 F4         -2.7173    0.0310    0.0004 F         1 MOL        -0.2309
     13 F5         -2.6530    1.8791    1.0627 F         1 MOL        -0.2330
     14 F6         -2.6529    1.8781   -1.0635 F         1 MOL        -0.2330
     15 H1          1.9446    3.3242    0.0000 H         1 MOL         0.1476
     16 H2          3.1657    1.1851    0.0000 H         1 MOL         0.1540
     17 H3         -0.5126    3.3373    0.0000 H         1 MOL         0.1505
     18 H4         -0.5399   -0.9277    0.0001 H         1 MOL         0.1621
@<TRIPOS>BOND
     1    1    2 ar
     2    1    3 ar
     3    2    5 ar
     4    3    6 ar
     5    4    5 ar
     6    4    6 ar
     7    5    7 1
     8    6    8 1
     9    7    9 1
    10    7   10 1
    11    7   11 1
    12    8   12 1
    13    8   13 1
    14    8   14 1
    15    1   15 1
    16    2   16 1
    17    3   17 1
    18    4   18 1
