@<TRIPOS>MOLECULE
di_isopropyl_sulfide
   21    20     0     0     0
SMALL
USER_CHARGES

@<TRIPOS>ATOM
      1 C1          1.3019    0.5618    2.8861 C.3       1 MOL        -0.0842
      2 C2          0.6189   -0.0244    0.5344 C.3       1 MOL        -0.0842
      3 C3          2.9489    3.5545    1.8142 C.3       1 MOL        -0.0842
      4 C4          0.9953    4.9991    2.4751 C.3       1 MOL        -0.0842
      5 C5          1.2990    1.0057    1.4282 C.3       1 MOL         0.0204
      6 C6          1.5251    3.5751    2.3572 C.3       1 MOL         0.0204
      7 S1          0.4464    2.6115    1.2755 S.3       1 MOL        -0.3384
      8 H1          1.8373   -0.3881    2.9936 H         1 MOL         0.0418
      9 H2          1.8072    1.2947    3.5250 H         1 MOL         0.0418
     10 H3          0.2863    0.4123    3.2701 H         1 MOL         0.0418
     11 H4          1.1410   -0.9858    0.5960 H         1 MOL         0.0418
     12 H5          0.6331    0.2874   -0.5158 H         1 MOL         0.0418
     13 H6         -0.4229   -0.1964    0.8283 H         1 MOL         0.0418
     14 H7          3.6179    4.1123    2.4789 H         1 MOL         0.0418
     15 H8          3.3352    2.5313    1.7470 H         1 MOL         0.0418
     16 H9          3.0144    4.0133    0.8210 H         1 MOL         0.0418
     17 H10         1.6261    5.5851    3.1529 H         1 MOL         0.0418
     18 H11        -0.0218    5.0138    2.8823 H         1 MOL         0.0418
     19 H12         0.9860    5.5134    1.5073 H         1 MOL         0.0418
     20 H13         2.3321    1.1465    1.0931 H         1 MOL         0.0665
     21 H14         1.5101    3.1028    3.3452 H         1 MOL         0.0665
@<TRIPOS>BOND
     1    1    5 1
     2    2    5 1
     3    3    6 1
     4    4    6 1
     5    5    7 1
     6    6    7 1
     7    1    8 1
     8    1    9 1
     9    1   10 1
    10    2   11 1
    11    2   12 1
    12    2   13 1
    13    3   14 1
    14    3   15 1
    15    3   16 1
    16    4   17 1
    17    4   18 1
    18    4   19 1
    19    5   20 1
    20    6   21 1
