@<TRIPOS>MOLECULE
nitromethane
    7     6     0     0     0
SMALL
USER_CHARGES

@<TRIPOS>ATOM
      1 C1         -0.0498   -1.0800    0.1408 C.3       1 MOL        -0.0988
      2 N1         -0.9541   -1.6164   -0.8788 N.pl3     1 MOL         0.2335
      3 O1         -1.0592   -0.9955   -1.9554 O.3       1 MOL        -0.2092
      4 O2         -1.5581   -2.6771   -0.6220 O.2       1 MOL        -0.2092
      5 H1         -0.4683   -1.3356    1.1145 H         1 MOL         0.0946
      6 H2          0.0000    0.0000    0.0000 H         1 MOL         0.0946
      7 H3          0.9232   -1.5476   -0.0111 H         1 MOL         0.0946
@<TRIPOS>BOND
     1    1    2 1
     2    2    3 1
     3    2    4 2
     4    1    5 1
     5    1    6 1
     6    1    7 1
