@<TRIPOS>MOLECULE
methyl_cyclopropyl_ketone
   14    14     0     0     0
SMALL
USER_CHARGES

@<TRIPOS>ATOM
      1 C1          2.3856    0.7991    3.1697 C.2       1 MOL         0.5887
      2 C2          0.0374    1.7911    2.9135 C.3       1 MOL        -0.1061
      3 C3          0.7572    2.0269    1.6180 C.3       1 MOL        -0.1061
      4 C4          1.0817    0.8320    2.4501 C.3       1 MOL        -0.2464
      5 C5          3.0370   -0.5476    3.2860 C.3       1 MOL        -0.1942
      6 O1          2.8712    1.8269    3.6260 O.2       1 MOL        -0.5294
      7 H1          0.2855    2.4276    3.7540 H         1 MOL         0.0776
      8 H2         -1.0059    1.5037    2.8629 H         1 MOL         0.0776
      9 H3          0.1969    1.8985    0.6999 H         1 MOL         0.0776
     10 H4          1.4893    2.8247    1.5874 H         1 MOL         0.0776
     11 H5          0.7592   -0.1323    2.0943 H         1 MOL         0.0950
     12 H6          2.3792   -1.2299    3.8304 H         1 MOL         0.0627
     13 H7          3.2473   -0.9426    2.2889 H         1 MOL         0.0627
     14 H8          3.9785   -0.4534    3.8341 H         1 MOL         0.0627
@<TRIPOS>BOND
     1    1    4 1
     2    1    5 1
     3    1    6 2
     4    2    3 1
     5    2    4 1
     6    3    4 1
     7    2    7 1
     8    2    8 1
     9    3    9 1
    10    3   10 1
    11    4   11 1
    12    5   12 1
    13    5   13 1
    14    5   14 1
