@<TRIPOS>MOLECULE
non_1_ene
   27    26     0     0     0
SMALL
USER_CHARGES

@<TRIPOS>ATOM
      1 C1         -1.2734   -4.5030    4.8404 C.2       1 MOL        -0.2250
      2 C2         -0.9595   -3.5271    3.9812 C.2       1 MOL        -0.1640
      3 C3         -5.7587    2.8704    0.0592 C.3       1 MOL        -0.0896
      4 C4         -1.5827   -2.1625    3.9971 C.3       1 MOL        -0.0486
      5 C5         -5.0280    1.5379    0.0143 C.3       1 MOL        -0.0777
      6 C6         -2.2130   -1.7737    2.6555 C.3       1 MOL        -0.0728
      7 C7         -4.3103    1.2482    1.3324 C.3       1 MOL        -0.0763
      8 C8         -2.9190   -0.4129    2.6293 C.3       1 MOL        -0.0773
      9 C9         -3.6036   -0.1087    1.2950 C.3       1 MOL        -0.0766
     10 H1         -0.7818   -5.4678    4.7792 H         1 MOL         0.1104
     11 H2         -2.0210   -4.3601    5.6127 H         1 MOL         0.1104
     12 H3         -0.2001   -3.7202    3.2281 H         1 MOL         0.1177
     13 H4         -6.5136    2.8770    0.8521 H         1 MOL         0.0314
     14 H5         -6.2646    3.0578   -0.8931 H         1 MOL         0.0314
     15 H6         -5.0615    3.6944    0.2415 H         1 MOL         0.0314
     16 H7         -2.3227   -2.0753    4.8007 H         1 MOL         0.0447
     17 H8         -0.7945   -1.4366    4.2324 H         1 MOL         0.0447
     18 H9         -5.7481    0.7400   -0.2009 H         1 MOL         0.0373
     19 H10        -4.3040    1.5524   -0.8087 H         1 MOL         0.0373
     20 H11        -1.4297   -1.7830    1.8873 H         1 MOL         0.0401
     21 H12        -2.9382   -2.5441    2.3634 H         1 MOL         0.0401
     22 H13        -3.5768    2.0387    1.5329 H         1 MOL         0.0377
     23 H14        -5.0348    1.2630    2.1558 H         1 MOL         0.0377
     24 H15        -2.2083    0.3856    2.8726 H         1 MOL         0.0393
     25 H16        -3.6731   -0.4083    3.4264 H         1 MOL         0.0393
     26 H17        -2.8658   -0.1046    0.4854 H         1 MOL         0.0387
     27 H18        -4.3324   -0.8960    1.0678 H         1 MOL         0.0387
@<TRIPOS>BOND
     1    1    2 2
     2    2    4 1
     3    3    5 1
     4    4    6 1
     5    5    7 1
     6    6    8 1
     7    7    9 1
     8    8    9 1
     9    1   10 1
    10    1   11 1
    11    2   12 1
    12    3   13 1
    13    3   14 1
    14    3   15 1
    15    4   16 1
    16    4   17 1
    17    5   18 1
    18    5   19 1
    19    6   20 1
    20    6   21 1
    21    7   22 1
    22    7   23 1
    23    8   24 1
    24    8   25 1
    25    9   26 1
    26    9   27 1
