@<TRIPOS>MOLECULE
2_methoxyethanamine
   14    13     0     0     0
SMALL
USER_CHARGES

@<TRIPOS>ATOM
      1 C1          0.2962    3.8862    0.7607 C.3       1 MOL         0.1184
      2 C2          0.7871    0.4949   -0.5798 C.3       1 MOL         0.1378
      3 C3          0.5392    1.9945   -0.6124 C.3       1 MOL         0.1212
      4 N1          0.8132   -0.0510   -1.9286 N.3       1 MOL        -0.9133
      5 O1          0.5047    2.4810    0.7229 O.3       1 MOL        -0.4227
      6 H1         -0.3116    4.1418    1.6321 H         1 MOL         0.0320
      7 H2         -0.2081    4.2054   -0.1549 H         1 MOL         0.0320
      8 H3          1.2642    4.3873    0.8348 H         1 MOL         0.0320
      9 H4          1.7339    0.2830   -0.0699 H         1 MOL         0.0362
     10 H5          0.0031    0.0006    0.0046 H         1 MOL         0.0362
     11 H6         -0.4189    2.2254   -1.0899 H         1 MOL         0.0447
     12 H7          1.3385    2.5157   -1.1498 H         1 MOL         0.0447
     13 H8          0.4292    0.6349   -2.5756 H         1 MOL         0.3503
     14 H9          0.1995   -0.8621   -1.9740 H         1 MOL         0.3503
@<TRIPOS>BOND
     1    1    5 1
     2    2    3 1
     3    2    4 1
     4    3    5 1
     5    1    6 1
     6    1    7 1
     7    1    8 1
     8    2    9 1
     9    2   10 1
    10    3   11 1
    11    3   12 1
    12    4   13 1
    13    4   14 1
