@<TRIPOS>MOLECULE
Z_pent_2_ene
   15    14     0     0     0
SMALL
USER_CHARGES

@<TRIPOS>ATOM
      1 C1          1.5643   -0.6624    1.2357 C.2       1 MOL        -0.1734
      2 C2          0.8257    0.2886    0.6459 C.2       1 MOL        -0.1722
      3 C3          1.3215   -2.1259    1.0696 C.3       1 MOL        -0.0594
      4 C4          0.1007   -0.1225   -1.7064 C.3       1 MOL        -0.0873
      5 C5         -0.3382    0.0013   -0.2557 C.3       1 MOL        -0.0455
      6 H1          2.3932   -0.3774    1.8782 H         1 MOL         0.1171
      7 H2          1.0602    1.3351    0.8250 H         1 MOL         0.1164
      8 H3          2.2079   -2.6045    0.6424 H         1 MOL         0.0389
      9 H4          0.4712   -2.3341    0.4124 H         1 MOL         0.0389
     10 H5          1.1195   -2.5827    2.0433 H         1 MOL         0.0389
     11 H6         -0.7644   -0.3186   -2.3478 H         1 MOL         0.0330
     12 H7          0.8116   -0.9456   -1.8356 H         1 MOL         0.0330
     13 H8          0.5784    0.7988   -2.0567 H         1 MOL         0.0330
     14 H9         -1.0643    0.8170   -0.1634 H         1 MOL         0.0442
     15 H10        -0.8525   -0.9189    0.0450 H         1 MOL         0.0442
@<TRIPOS>BOND
     1    1    2 2
     2    1    3 1
     3    2    5 1
     4    4    5 1
     5    1    6 1
     6    2    7 1
     7    3    8 1
     8    3    9 1
     9    3   10 1
    10    4   11 1
    11    4   12 1
    12    4   13 1
    13    5   14 1
    14    5   15 1
