@<TRIPOS>MOLECULE
isobutyl_acetate
   20    19     0     0     0
SMALL
USER_CHARGES

@<TRIPOS>ATOM
      1 C1          2.9553    2.5470    2.0634 C.2       1 MOL         0.6311
      2 C2          3.7244    1.9940    3.2248 C.3       1 MOL        -0.1499
      3 C3          1.0311   -0.3733   -0.2606 C.3       1 MOL        -0.0875
      4 C4          1.1230    1.1728   -2.2352 C.3       1 MOL        -0.0875
      5 C5          1.9991    1.9493   -0.0132 C.3       1 MOL         0.1396
      6 C6          1.8182    0.7470   -0.9439 C.3       1 MOL        -0.0798
      7 O1          2.5971    3.7134    1.9718 O.2       1 MOL        -0.5377
      8 O2          2.7244    1.5597    1.1457 O.3       1 MOL        -0.4435
      9 H1          4.6916    1.6170    2.8834 H         1 MOL         0.0741
     10 H2          3.1489    1.1993    3.7062 H         1 MOL         0.0741
     11 H3          3.8984    2.7889    3.9559 H         1 MOL         0.0741
     12 H4          0.9100   -1.2282   -0.9346 H         1 MOL         0.0369
     13 H5          0.0331   -0.0328    0.0360 H         1 MOL         0.0369
     14 H6          1.5481   -0.7302    0.6361 H         1 MOL         0.0369
     15 H7          1.0182    0.3238   -2.9191 H         1 MOL         0.0369
     16 H8          1.7010    1.9469   -2.7509 H         1 MOL         0.0369
     17 H9          0.1227    1.5724   -2.0360 H         1 MOL         0.0369
     18 H10         2.5635    2.7424   -0.5149 H         1 MOL         0.0569
     19 H11         1.0314    2.3549    0.3013 H         1 MOL         0.0569
     20 H12         2.8091    0.3465   -1.1933 H         1 MOL         0.0582
@<TRIPOS>BOND
     1    1    2 1
     2    1    7 2
     3    1    8 1
     4    3    6 1
     5    4    6 1
     6    5    6 1
     7    5    8 1
     8    2    9 1
     9    2   10 1
    10    2   11 1
    11    3   12 1
    12    3   13 1
    13    3   14 1
    14    4   15 1
    15    4   16 1
    16    4   17 1
    17    5   18 1
    18    5   19 1
    19    6   20 1
