@<TRIPOS>MOLECULE
pent_1_yne
   13    12     0     0     0
SMALL
USER_CHARGES

@<TRIPOS>ATOM
      1 C1          3.8759   -3.3884    1.2010 C.1       1 MOL        -0.1629
      2 C2          2.9022   -2.8462    0.7546 C.1       1 MOL        -0.1304
      3 C3          0.7826   -0.0539   -0.7635 C.3       1 MOL        -0.0921
      4 C4          1.7082   -2.1860    0.2094 C.3       1 MOL        -0.0099
      5 C5          2.0200   -0.7558   -0.2268 C.3       1 MOL        -0.0747
      6 H1          4.7397   -3.8690    1.5969 H         1 MOL         0.1629
      7 H2          0.0000    0.0000    0.0000 H         1 MOL         0.0336
      8 H3          1.0295    0.9676   -1.0695 H         1 MOL         0.0336
      9 H4          0.3788   -0.5810   -1.6337 H         1 MOL         0.0336
     10 H5          1.3306   -2.7611   -0.6441 H         1 MOL         0.0573
     11 H6          0.9162   -2.1790    0.9674 H         1 MOL         0.0573
     12 H7          2.7962   -0.7595   -1.0020 H         1 MOL         0.0457
     13 H8          2.4205   -0.1832    0.6189 H         1 MOL         0.0457
@<TRIPOS>BOND
     1    1    2 3
     2    2    4 1
     3    3    5 1
     4    4    5 1
     5    1    6 1
     6    3    7 1
     7    3    8 1
     8    3    9 1
     9    4   10 1
    10    4   11 1
    11    5   12 1
    12    5   13 1
