@<TRIPOS>MOLECULE
SAMPL4_033
   21    21     0     0     0
SMALL
USER_CHARGES

@<TRIPOS>ATOM
      1 C1          2.5460   -1.5100    3.3320 C.ar      1 MOL        -0.1000
      2 C2          1.3250   -0.8360    3.2980 C.ar      1 MOL        -0.1980
      3 C3          3.1970   -1.8340    2.1420 C.ar      1 MOL        -0.1980
      4 C4          0.7570   -0.4840    2.0740 C.ar      1 MOL         0.0941
      5 C5          2.6290   -1.4820    0.9180 C.ar      1 MOL         0.0941
      6 C6          1.4090   -0.8070    0.8840 C.ar      1 MOL         0.0831
      7 C7         -1.0340    0.4680    3.3160 C.3       1 MOL         0.1167
      8 C8          4.5190   -2.4930   -0.1140 C.3       1 MOL         0.1167
      9 O1          0.8530   -0.4650   -0.3130 O.3       1 MOL        -0.4751
     10 O2         -0.4350    0.1760    2.0550 O.3       1 MOL        -0.3249
     11 O3          3.2760   -1.8030   -0.2370 O.3       1 MOL        -0.3249
     12 H1          2.9880   -1.7840    4.2860 H         1 MOL         0.1340
     13 H2          0.8220   -0.5870    4.2280 H         1 MOL         0.1395
     14 H3          4.1480   -2.3600    2.1750 H         1 MOL         0.1395
     15 H4         -1.9780    0.9950    3.1580 H         1 MOL         0.0450
     16 H5         -0.3540    1.0850    3.9090 H         1 MOL         0.0450
     17 H6         -1.2260   -0.4690    3.8440 H         1 MOL         0.0450
     18 H7          4.9280   -2.6880   -1.1080 H         1 MOL         0.0450
     19 H8          4.3620   -3.4340    0.4190 H         1 MOL         0.0450
     20 H9          5.2170   -1.8700    0.4500 H         1 MOL         0.0450
     21 H10         1.4230   -0.7570   -1.0420 H         1 MOL         0.4310
@<TRIPOS>BOND
     1    1    2 ar
     2    1    3 ar
     3    2    4 ar
     4    3    5 ar
     5    4    6 ar
     6    4   10 1
     7    5    6 ar
     8    5   11 1
     9    6    9 1
    10    7   10 1
    11    8   11 1
    12    1   12 1
    13    2   13 1
    14    3   14 1
    15    7   15 1
    16    7   16 1
    17    7   17 1
    18    8   18 1
    19    8   19 1
    20    8   20 1
    21    9   21 1
