@<TRIPOS>MOLECULE
2_methylhexane
   23    22     0     0     0
SMALL
USER_CHARGES

@<TRIPOS>ATOM
      1 C1         -0.5128    0.6356   -0.8556 C.3       1 MOL        -0.0896
      2 C2         -5.4964   -0.0477    0.9782 C.3       1 MOL        -0.0869
      3 C3         -4.2262    0.1997    3.1198 C.3       1 MOL        -0.0869
      4 C4         -1.5837    1.5479   -0.2789 C.3       1 MOL        -0.0778
      5 C5         -2.6296    0.7568    0.5083 C.3       1 MOL        -0.0764
      6 C6         -3.6835    1.6862    1.1179 C.3       1 MOL        -0.0726
      7 C7         -4.7797    0.9408    1.9017 C.3       1 MOL        -0.0664
      8 H1          0.2230    1.2216   -1.4147 H         1 MOL         0.0313
      9 H2          0.0138    0.0979   -0.0610 H         1 MOL         0.0313
     10 H3         -0.9500   -0.1007   -1.5376 H         1 MOL         0.0313
     11 H4         -4.8060   -0.8081    0.5975 H         1 MOL         0.0320
     12 H5         -6.3060   -0.5598    1.5089 H         1 MOL         0.0320
     13 H6         -5.9374    0.4706    0.1201 H         1 MOL         0.0320
     14 H7         -3.4291   -0.4949    2.8337 H         1 MOL         0.0320
     15 H8         -5.0150   -0.3773    3.6147 H         1 MOL         0.0320
     16 H9         -3.8232    0.8961    3.8610 H         1 MOL         0.0320
     17 H10        -2.0684    2.0951   -1.0958 H         1 MOL         0.0370
     18 H11        -1.1094    2.2907    0.3729 H         1 MOL         0.0370
     19 H12        -3.1073    0.0337   -0.1618 H         1 MOL         0.0386
     20 H13        -2.1358    0.1876    1.3050 H         1 MOL         0.0386
     21 H14        -3.1816    2.3892    1.7954 H         1 MOL         0.0379
     22 H15        -4.1406    2.2891    0.3227 H         1 MOL         0.0379
     23 H16        -5.5208    1.6708    2.2515 H         1 MOL         0.0437
@<TRIPOS>BOND
     1    1    4 1
     2    2    7 1
     3    3    7 1
     4    4    5 1
     5    5    6 1
     6    6    7 1
     7    1    8 1
     8    1    9 1
     9    1   10 1
    10    2   11 1
    11    2   12 1
    12    2   13 1
    13    3   14 1
    14    3   15 1
    15    3   16 1
    16    4   17 1
    17    4   18 1
    18    5   19 1
    19    5   20 1
    20    6   21 1
    21    6   22 1
    22    7   23 1
