@<TRIPOS>MOLECULE
SAMPL4_036
   19    19     0     0     0
SMALL
USER_CHARGES

@<TRIPOS>ATOM
      1 C1          2.3660   -1.3020   -0.3360 C.ar      1 MOL        -0.1620
      2 C2          3.2850   -1.9550    0.4850 C.ar      1 MOL        -0.0960
      3 C3          1.3230   -0.5690    0.2300 C.ar      1 MOL        -0.0980
      4 C4          3.1600   -1.8760    1.8730 C.ar      1 MOL        -0.2110
      5 C5          1.1970   -0.4900    1.6170 C.ar      1 MOL        -0.0993
      6 C6          2.1160   -1.1440    2.4380 C.ar      1 MOL         0.1231
      7 C7         -1.0530   -0.5950    2.7170 C.3       1 MOL        -0.0881
      8 C8          0.0740    0.2970    2.2040 C.3       1 MOL        -0.0271
      9 O1          2.0070   -1.0780    3.7950 O.3       1 MOL        -0.4981
     10 H1          2.4630   -1.3630   -1.4160 H         1 MOL         0.1330
     11 H2          4.0970   -2.5260    0.0450 H         1 MOL         0.1320
     12 H3          0.6110   -0.0650   -0.4190 H         1 MOL         0.1340
     13 H4          3.8780   -2.3870    2.5070 H         1 MOL         0.1320
     14 H5         -1.4410   -1.2360    1.9180 H         1 MOL         0.0360
     15 H6         -1.8820    0.0100    3.0980 H         1 MOL         0.0360
     16 H7         -0.7040   -1.2420    3.5280 H         1 MOL         0.0360
     17 H8          0.4390    0.9270    3.0300 H         1 MOL         0.0497
     18 H9         -0.3320    0.9990    1.4590 H         1 MOL         0.0497
     19 H10         2.7210   -1.5850    4.2130 H         1 MOL         0.4170
@<TRIPOS>BOND
     1    1    2 ar
     2    1    3 ar
     3    2    4 ar
     4    3    5 ar
     5    4    6 ar
     6    5    6 ar
     7    5    8 1
     8    6    9 1
     9    7    8 1
    10    1   10 1
    11    2   11 1
    12    3   12 1
    13    4   13 1
    14    7   14 1
    15    7   15 1
    16    7   16 1
    17    8   17 1
    18    8   18 1
    19    9   19 1
