@<TRIPOS>MOLECULE
bencl.xyz	      0.0000000
   15    15     0     0     0
SMALL
USER_CHARGES

@<TRIPOS>ATOM
      1 C1         -0.0230    2.4025   -0.0044 C.ar      1 MOL        -0.1161
      2 C2          1.3641    2.4109   -0.0030 C.ar      1 MOL        -0.1293
      3 C3         -0.7043    1.1941   -0.0031 C.ar      1 MOL        -0.1293
      4 C4          2.0657    1.2152    0.0000 C.ar      1 MOL        -0.1057
      5 C5          0.0000    0.0000    0.0000 C.ar      1 MOL        -0.1057
      6 C6          1.3903    0.0000    0.0000 C.ar      1 MOL        -0.1036
      7 C7          2.1521   -1.2948    0.0100 C.3       1 MOL         0.1060
      8 Cl1         2.5068   -1.9020   -1.6568 Cl        1 MOL        -0.2123
      9 H1         -0.5683    3.3294   -0.0053 H         1 MOL         0.1314
     10 H2          1.8981    3.3445   -0.0028 H         1 MOL         0.1325
     11 H3         -1.7797    1.1809   -0.0029 H         1 MOL         0.1325
     12 H4          3.1420    1.2281   -0.0029 H         1 MOL         0.1324
     13 H5         -0.5341   -0.9345   -0.0029 H         1 MOL         0.1324
     14 H6          3.1108   -1.1890    0.4919 H         1 MOL         0.0674
     15 H7          1.5948   -2.0808    0.4941 H         1 MOL         0.0674
@<TRIPOS>BOND
     1    1    2 ar
     2    1    3 ar
     3    2    4 ar
     4    3    5 ar
     5    4    6 ar
     6    5    6 ar
     7    6    7 1
     8    7    8 1
     9    1    9 1
    10    2   10 1
    11    3   11 1
    12    4   12 1
    13    5   13 1
    14    7   14 1
    15    7   15 1
