@<TRIPOS>MOLECULE
SAMPL4_010
   21    21     0     0     0
SMALL
USER_CHARGES

@<TRIPOS>ATOM
      1 C1          1.5140   -0.7420    0.4900 C.ar      1 MOL        -0.1410
      2 C2          2.5030   -1.7250    2.9060 C.ar      1 MOL         0.1111
      3 C3          1.3220   -0.9830    2.8860 C.ar      1 MOL         0.0526
      4 C4          3.1890   -1.9750    1.7180 C.ar      1 MOL         0.0526
      5 C5          0.8270   -0.4920    1.6780 C.ar      1 MOL         0.0349
      6 C6          2.6950   -1.4840    0.5100 C.ar      1 MOL         0.0349
      7 C7          1.0160    0.4350    4.7710 C.3       1 MOL         0.1112
      8 C8          5.5580   -1.9790    1.9300 C.3       1 MOL         0.1112
      9 O1          2.9870   -2.2050    4.0870 O.3       1 MOL        -0.4861
     10 O2          0.6610   -0.7460    4.0560 O.3       1 MOL        -0.3259
     11 O3          4.3430   -2.7030    1.7530 O.3       1 MOL        -0.3259
     12 Cl1        -0.6330    0.4260    1.6220 Cl        1 MOL        -0.0614
     13 Cl2         3.5210   -1.7820   -0.9750 Cl        1 MOL        -0.0614
     14 H1          1.1260   -0.3620   -0.4530 H         1 MOL         0.1660
     15 H2          0.4170    0.5040    5.6820 H         1 MOL         0.0480
     16 H3          0.8420    1.3100    4.1400 H         1 MOL         0.0480
     17 H4          2.0750    0.3840    5.0370 H         1 MOL         0.0480
     18 H5          6.4000   -2.6750    1.9400 H         1 MOL         0.0480
     19 H6          5.5190   -1.4250    2.8720 H         1 MOL         0.0480
     20 H7          5.6780   -1.2770    1.1020 H         1 MOL         0.0480
     21 H8          3.8090   -2.6960    3.9360 H         1 MOL         0.4400
@<TRIPOS>BOND
     1    1    5 ar
     2    1    6 ar
     3    2    3 ar
     4    2    4 ar
     5    2    9 1
     6    3    5 ar
     7    3   10 1
     8    4    6 ar
     9    4   11 1
    10    5   12 1
    11    6   13 1
    12    7   10 1
    13    8   11 1
    14    1   14 1
    15    7   15 1
    16    7   16 1
    17    7   17 1
    18    8   18 1
    19    8   19 1
    20    8   20 1
    21    9   21 1
