@<TRIPOS>MOLECULE
res
    6     5     0     0     0
SMALL
USER_CHARGES

@<TRIPOS>ATOM
      1 H1         -1.7290    0.3590   -0.5740 H         1 MOL         0.0801
      2 C1         -0.7000    0.0560   -0.6690 C.3       1 MOL        -0.0239
      3 H2         -0.5790   -1.0380   -0.4440 H         1 MOL         0.0555
      4 H3         -0.3030    0.2300   -1.6890 H         1 MOL         0.0555
      5 S1          0.3030    1.0070    0.5120 S.3       1 MOL        -0.3632
      6 H4          1.4920    0.4060    0.2160 H         1 MOL         0.1961
@<TRIPOS>BOND
     1    1    2 1
     2    2    3 1
     3    2    4 1
     4    2    5 1
     5    5    6 1
