@<TRIPOS>MOLECULE
m_cresol
   16    16     0     0     0
SMALL
USER_CHARGES

@<TRIPOS>ATOM
      1 C1          0.8324   -0.3948    0.5751 C.ar      1 MOL        -0.0885
      2 C2          1.8991   -1.0135   -0.0768 C.ar      1 MOL        -0.1665
      3 C3          0.8349   -0.2829    1.9655 C.ar      1 MOL        -0.2182
      4 C4          2.9708   -1.4085    2.0522 C.ar      1 MOL        -0.1588
      5 C5          2.9683   -1.5204    0.6618 C.ar      1 MOL        -0.0334
      6 C6          1.9042   -0.7896    2.7040 C.ar      1 MOL         0.1270
      7 C7          4.1088   -2.1816   -0.0352 C.3       1 MOL        -0.0633
      8 O1          1.9063   -0.6804    4.0607 O.3       1 MOL        -0.5007
      9 H1         -0.0005   -0.0006    0.0002 H         1 MOL         0.1317
     10 H2          1.8886   -1.0964   -1.1604 H         1 MOL         0.1330
     11 H3          0.0010    0.1999    2.4675 H         1 MOL         0.1325
     12 H4          3.8030   -1.8026    2.6305 H         1 MOL         0.1495
     13 H5          4.8778   -2.4794    0.6881 H         1 MOL         0.0456
     14 H6          3.7787   -3.0757   -0.5800 H         1 MOL         0.0456
     15 H7          4.5671   -1.5110   -0.7739 H         1 MOL         0.0456
     16 H8          1.2264   -0.0343    4.3256 H         1 MOL         0.4188
@<TRIPOS>BOND
     1    1    2 ar
     2    1    3 ar
     3    2    5 ar
     4    3    6 ar
     5    4    5 ar
     6    4    6 ar
     7    5    7 1
     8    6    8 1
     9    1    9 1
    10    2   10 1
    11    3   11 1
    12    4   12 1
    13    7   13 1
    14    7   14 1
    15    7   15 1
    16    8   16 1
