@<TRIPOS>MOLECULE
1_nitropentane
   19    18     0     0     0
SMALL
USER_CHARGES

@<TRIPOS>ATOM
      1 C1          0.3785   -0.7859    0.7064 C.3       1 MOL        -0.0918
      2 C2          1.5222   -0.2153    1.5296 C.3       1 MOL        -0.0784
      3 C3          2.6996    0.1938    0.6447 C.3       1 MOL        -0.0799
      4 C4          3.8612    0.7357    1.4788 C.3       1 MOL        -0.0898
      5 C5          5.0101    1.1785    0.5895 C.3       1 MOL        -0.0746
      6 N1          6.0590    1.7461    1.4531 N.pl3     1 MOL         0.2282
      7 O1          6.0254    2.9687    1.6778 O.3       1 MOL        -0.2111
      8 O2          6.9051    0.9633    1.9200 O.2       1 MOL        -0.2111
      9 H1         -0.4522   -1.0720    1.3592 H         1 MOL         0.0359
     10 H2          0.0072   -0.0493   -0.0132 H         1 MOL         0.0359
     11 H3          0.6983   -1.6753    0.1542 H         1 MOL         0.0359
     12 H4          1.8480   -0.9650    2.2602 H         1 MOL         0.0413
     13 H5          1.1611    0.6524    2.0939 H         1 MOL         0.0413
     14 H6          2.3731    0.9583   -0.0710 H         1 MOL         0.0482
     15 H7          3.0387   -0.6712    0.0615 H         1 MOL         0.0482
     16 H8          4.2043   -0.0376    2.1782 H         1 MOL         0.0673
     17 H9          3.5135    1.5786    2.0901 H         1 MOL         0.0673
     18 H10         4.7211    1.9683   -0.1082 H         1 MOL         0.0935
     19 H11         5.4685    0.3464    0.0496 H         1 MOL         0.0935
@<TRIPOS>BOND
     1    1    2 1
     2    2    3 1
     3    3    4 1
     4    4    5 1
     5    5    6 1
     6    6    7 1
     7    6    8 2
     8    1    9 1
     9    1   10 1
    10    1   11 1
    11    2   12 1
    12    2   13 1
    13    3   14 1
    14    3   15 1
    15    4   16 1
    16    4   17 1
    17    5   18 1
    18    5   19 1
