@<TRIPOS>MOLECULE
1,3-dichloro-2-(2,6-dichlorophenyl)benzene
   22    23     0     0     0
SMALL
USER_CHARGES

@<TRIPOS>ATOM
      1 C1          1.8851   -1.0363   -0.1124 C.ar      1 MOL        -0.1071
      2 C2          1.6693   -1.1432    6.9182 C.ar      1 MOL        -0.1052
      3 C3          0.8066   -0.4630    0.5610 C.ar      1 MOL        -0.1282
      4 C4          2.9210   -1.6309    0.6081 C.ar      1 MOL        -0.1289
      5 C5          1.1076   -2.1899    6.1872 C.ar      1 MOL        -0.1300
      6 C6          2.2739   -0.0752    6.2552 C.ar      1 MOL        -0.1295
      7 C7          1.7997   -1.0786    2.6757 C.ar      1 MOL        -0.0344
      8 C8          1.7551   -1.1008    4.1301 C.ar      1 MOL        -0.0336
      9 C9          0.7638   -0.4841    1.9551 C.ar      1 MOL         0.0495
     10 C10         2.8783   -1.6520    2.0022 C.ar      1 MOL         0.0497
     11 C11         1.1505   -2.1687    4.7932 C.ar      1 MOL         0.0492
     12 C12         2.3168   -0.0540    4.8611 C.ar      1 MOL         0.0484
     13 Cl1        -0.6017    0.2450    2.7295 Cl        1 MOL        -0.0736
     14 Cl2         4.1947   -2.4049    2.8365 Cl        1 MOL        -0.0736
     15 Cl3         0.4360   -3.4982    3.9457 Cl        1 MOL        -0.0738
     16 Cl4         3.0812    1.2995    4.0998 Cl        1 MOL        -0.0737
     17 H1          1.9183   -1.0198   -1.1979 H         1 MOL         0.1411
     18 H2          1.6358   -1.1598    8.0036 H         1 MOL         0.1438
     19 H3          0.0079   -0.0042   -0.0166 H         1 MOL         0.1534
     20 H4          3.7537   -2.0729    0.0668 H         1 MOL         0.1532
     21 H5          0.6403   -3.0141    6.7204 H         1 MOL         0.1514
     22 H6          2.7065    0.7320    6.8409 H         1 MOL         0.1520
@<TRIPOS>BOND
     1    1    3 ar
     2    1    4 ar
     3    2    5 ar
     4    2    6 ar
     5    3    9 ar
     6    4   10 ar
     7    5   11 ar
     8    6   12 ar
     9    7    8 1
    10    7    9 ar
    11    7   10 ar
    12    8   11 ar
    13    8   12 ar
    14    9   13 1
    15   10   14 1
    16   11   15 1
    17   12   16 1
    18    1   17 1
    19    2   18 1
    20    3   19 1
    21    4   20 1
    22    5   21 1
    23    6   22 1
