@<TRIPOS>MOLECULE
11_diacetoxyethane
   20    19     0     0     0
SMALL
USER_CHARGES

@<TRIPOS>ATOM
      1 C1          1.2722   -1.7662    0.3115 C.2       1 MOL         0.6421
      2 C2          3.3155   -5.0351   -1.2938 C.2       1 MOL         0.6421
      3 C3          0.9939   -0.3188    0.5828 C.3       1 MOL        -0.1472
      4 C4          4.6475   -5.3297   -0.6734 C.3       1 MOL        -0.1472
      5 C5          1.7139   -3.2985   -2.9814 C.3       1 MOL        -0.1125
      6 C6          1.6576   -3.3147   -1.4605 C.3       1 MOL         0.3525
      7 O1          1.3720   -2.6196    1.1826 O.2       1 MOL        -0.5299
      8 O2          2.7000   -5.8231   -1.9985 O.2       1 MOL        -0.5299
      9 O3          1.3893   -1.9629   -1.0325 O.3       1 MOL        -0.4481
     10 O4          2.9237   -3.7758   -0.9490 O.3       1 MOL        -0.4481
     11 H1          1.8164    0.2941    0.2051 H         1 MOL         0.0764
     12 H2          0.0501   -0.0287    0.1141 H         1 MOL         0.0764
     13 H3          0.9104   -0.1617    1.6620 H         1 MOL         0.0764
     14 H4          5.3951   -4.6269   -1.0495 H         1 MOL         0.0764
     15 H5          4.5719   -5.2669    0.4150 H         1 MOL         0.0764
     16 H6          4.9563   -6.3439   -0.9423 H         1 MOL         0.0764
     17 H7          0.7813   -2.9094   -3.4023 H         1 MOL         0.0601
     18 H8          1.8995   -4.2984   -3.3849 H         1 MOL         0.0601
     19 H9          2.5261   -2.6496   -3.3284 H         1 MOL         0.0601
     20 H10         0.8356   -3.9590   -1.1226 H         1 MOL         0.0877
@<TRIPOS>BOND
     1    1    3 1
     2    1    7 2
     3    1    9 1
     4    2    4 1
     5    2    8 2
     6    2   10 1
     7    5    6 1
     8    6    9 1
     9    6   10 1
    10    3   11 1
    11    3   12 1
    12    3   13 1
    13    4   14 1
    14    4   15 1
    15    4   16 1
    16    5   17 1
    17    5   18 1
    18    5   19 1
    19    6   20 1
