@<TRIPOS>MOLECULE
dimethyl_disulfide@0
   10     9     0     0     0
SMALL
USER_CHARGES

@<TRIPOS>ATOM
      1 C1         -0.1957   -1.3967    0.8958 C.3       1 MOL        -0.0471
      2 C2          2.3380   -3.1018    2.8900 C.3       1 MOL        -0.0471
      3 S1          1.5430   -0.9086    0.9995 S.3       1 MOL        -0.0950
      4 S2          1.9797   -1.3303    2.9644 S.3       1 MOL        -0.0950
      5 H1         -0.3117   -2.4646    1.0988 H         1 MOL         0.0474
      6 H2         -0.5600   -1.2001   -0.1163 H         1 MOL         0.0474
      7 H3         -0.8016   -0.8159    1.5964 H         1 MOL         0.0474
      8 H4          1.4596   -3.6618    2.5587 H         1 MOL         0.0474
      9 H5          2.6087   -3.4517    3.8901 H         1 MOL         0.0474
     10 H6          3.1794   -3.2970    2.2198 H         1 MOL         0.0474
@<TRIPOS>BOND
     1    1    3 1
     2    1    5 1
     3    1    6 1
     4    1    7 1
     5    2    4 1
     6    2    8 1
     7    2    9 1
     8    2   10 1
     9    3    4 1
