@<TRIPOS>MOLECULE
SAMPL4_024
   44    46     0     0     0
SMALL
USER_CHARGES

@<TRIPOS>ATOM
      1 C1          3.8660    1.0810    6.7820 C.ar      1 MOL        -0.1350
      2 C2          0.9650   -0.4230    0.5620 C.ar      1 MOL        -0.1350
      3 C3          5.1180    0.5220    6.5790 C.ar      1 MOL        -0.1255
      4 C4          1.7760   -1.4230    0.0320 C.ar      1 MOL        -0.1255
      5 C5          2.7820    0.6460    6.0200 C.ar      1 MOL        -0.1185
      6 C6          0.9430   -0.1990    1.9390 C.ar      1 MOL        -0.1185
      7 C7          5.2810   -0.4680    5.6120 C.ar      1 MOL        -0.1340
      8 C8          2.5700   -2.1990    0.8760 C.ar      1 MOL        -0.1340
      9 C9          2.9210   -0.3680    5.0470 C.ar      1 MOL        -0.0418
     10 C10         1.7350   -0.9780    2.7960 C.ar      1 MOL        -0.0418
     11 C11         4.1980   -0.9340    4.8350 C.ar      1 MOL        -0.0593
     12 C12         2.5580   -1.9830    2.2620 C.ar      1 MOL        -0.0593
     13 C13         1.7210   -0.7510    4.2570 C.2       1 MOL        -0.0154
     14 C14         0.5610   -1.0060    4.8940 C.2       1 MOL        -0.1462
     15 C15         4.5480   -1.9880    3.8000 C.3       1 MOL        -0.0316
     16 C16         3.4250   -2.8150    3.1720 C.3       1 MOL        -0.0316
     17 C17        -3.8880   -2.9650    5.3890 C.3       1 MOL         0.1561
     18 C18        -2.6370   -3.6840    3.4670 C.3       1 MOL         0.1561
     19 C19        -0.7020   -1.3980    4.1940 C.3       1 MOL        -0.0572
     20 C20        -1.6220   -2.2260    5.0850 C.3       1 MOL         0.1748
     21 N1         -2.8460   -2.5840    4.4220 N.3       1 MOL        -0.7396
     22 H1          3.7270    1.8490    7.5370 H         1 MOL         0.1315
     23 H2          0.3470    0.1810   -0.0950 H         1 MOL         0.1315
     24 H3          5.9650    0.8460    7.1760 H         1 MOL         0.1310
     25 H4          1.7900   -1.6000   -1.0400 H         1 MOL         0.1310
     26 H5          1.8140    1.1080    6.2080 H         1 MOL         0.1345
     27 H6          0.3020    0.5850    2.3340 H         1 MOL         0.1345
     28 H7          6.2750   -0.8870    5.4650 H         1 MOL         0.1300
     29 H8          3.1960   -2.9760    0.4450 H         1 MOL         0.1300
     30 H9          0.5390   -0.9120    5.9720 H         1 MOL         0.1270
     31 H10         5.0570   -1.4770    2.9710 H         1 MOL         0.0527
     32 H11         5.2840   -2.6660    4.2550 H         1 MOL         0.0527
     33 H12         2.8090   -3.2320    3.9780 H         1 MOL         0.0527
     34 H13         3.8240   -3.6790    2.6250 H         1 MOL         0.0527
     35 H14        -4.0520   -2.1540    6.1030 H         1 MOL         0.0307
     36 H15        -3.5850   -3.8610    5.9370 H         1 MOL         0.0307
     37 H16        -4.8280   -3.1720    4.8700 H         1 MOL         0.0307
     38 H17        -1.8650   -3.4110    2.7430 H         1 MOL         0.0307
     39 H18        -3.5640   -3.8980    2.9290 H         1 MOL         0.0307
     40 H19        -2.3210   -4.5880    3.9950 H         1 MOL         0.0307
     41 H20        -0.4860   -1.9480    3.2690 H         1 MOL         0.0612
     42 H21        -1.2220   -0.4780    3.9030 H         1 MOL         0.0612
     43 H22        -1.8970   -1.6510    5.9750 H         1 MOL         0.0312
     44 H23        -1.1390   -3.1520    5.4150 H         1 MOL         0.0312
@<TRIPOS>BOND
     1    1    3 ar
     2    1    5 ar
     3    2    4 ar
     4    2    6 ar
     5    3    7 ar
     6    4    8 ar
     7    5    9 ar
     8    6   10 ar
     9    7   11 ar
    10    8   12 ar
    11    9   11 ar
    12    9   13 1
    13   10   12 ar
    14   10   13 1
    15   11   15 1
    16   12   16 1
    17   13   14 2
    18   14   19 1
    19   15   16 1
    20   17   21 1
    21   18   21 1
    22   19   20 1
    23   20   21 1
    24    1   22 1
    25    2   23 1
    26    3   24 1
    27    4   25 1
    28    5   26 1
    29    6   27 1
    30    7   28 1
    31    8   29 1
    32   14   30 1
    33   15   31 1
    34   15   32 1
    35   16   33 1
    36   16   34 1
    37   17   35 1
    38   17   36 1
    39   17   37 1
    40   18   38 1
    41   18   39 1
    42   18   40 1
    43   19   41 1
    44   19   42 1
    45   20   43 1
    46   20   44 1
