@<TRIPOS>MOLECULE
propanoic_acid
   11    10     0     0     0
SMALL
USER_CHARGES

@<TRIPOS>ATOM
      1 C1         -0.9082   -1.5561   -2.1106 C.2       1 MOL         0.6328
      2 C2          0.7690   -0.5809   -0.5200 C.3       1 MOL        -0.0901
      3 C3          0.3923   -0.8062   -1.9738 C.3       1 MOL        -0.1233
      4 O1         -1.6174   -1.9436   -1.1942 O.2       1 MOL        -0.5494
      5 O2         -1.1977   -1.7502   -3.4230 O.3       1 MOL        -0.6106
      6 H1          1.7150   -0.0351   -0.4515 H         1 MOL         0.0474
      7 H2          0.0000    0.0000    0.0000 H         1 MOL         0.0474
      8 H3          0.8837   -1.5331    0.0086 H         1 MOL         0.0474
      9 H4          0.2897    0.1613   -2.4762 H         1 MOL         0.0773
     10 H5          1.1801   -1.3852   -2.4671 H         1 MOL         0.0773
     11 H6         -2.0410   -2.2367   -3.5433 H         1 MOL         0.4439
@<TRIPOS>BOND
     1    1    3 1
     2    1    4 2
     3    1    5 1
     4    2    3 1
     5    2    6 1
     6    2    7 1
     7    2    8 1
     8    3    9 1
     9    3   10 1
    10    5   11 1
