@<TRIPOS>MOLECULE
2_methylpent_1_ene
   18    17     0     0     0
SMALL
USER_CHARGES

@<TRIPOS>ATOM
      1 C1          0.5823    0.4188    0.8432 C.2       1 MOL        -0.2284
      2 C2         -0.0603    0.9915    1.8730 C.2       1 MOL        -0.1131
      3 C3         -1.5343    0.7948    2.0825 C.3       1 MOL        -0.0580
      4 C4          0.8970    4.0809    4.0049 C.3       1 MOL        -0.0906
      5 C5          0.6737    1.8302    2.8922 C.3       1 MOL        -0.0429
      6 C6          0.1244    3.2556    2.9869 C.3       1 MOL        -0.0738
      7 H1          1.6472    0.5609    0.6920 H         1 MOL         0.1115
      8 H2          0.0587   -0.2082    0.1290 H         1 MOL         0.1115
      9 H3         -1.7240    0.3729    3.0748 H         1 MOL         0.0400
     10 H4         -2.0673    1.7469    2.0007 H         1 MOL         0.0400
     11 H5         -1.9665    0.1101    1.3447 H         1 MOL         0.0400
     12 H6          1.9535    4.1569    3.7282 H         1 MOL         0.0325
     13 H7          0.8336    3.6333    5.0018 H         1 MOL         0.0325
     14 H8          0.4871    5.0943    4.0606 H         1 MOL         0.0325
     15 H9          1.7426    1.8743    2.6450 H         1 MOL         0.0442
     16 H10         0.6112    1.3382    3.8711 H         1 MOL         0.0442
     17 H11        -0.9324    3.2392    3.2766 H         1 MOL         0.0389
     18 H12         0.1838    3.7468    2.0081 H         1 MOL         0.0389
@<TRIPOS>BOND
     1    1    2 2
     2    2    3 1
     3    2    5 1
     4    4    6 1
     5    5    6 1
     6    1    7 1
     7    1    8 1
     8    3    9 1
     9    3   10 1
    10    3   11 1
    11    4   12 1
    12    4   13 1
    13    4   14 1
    14    5   15 1
    15    5   16 1
    16    6   17 1
    17    6   18 1
