@<TRIPOS>MOLECULE
hexachlorobenzene
   12    12     0     0     0
SMALL
USER_CHARGES

@<TRIPOS>ATOM
      1 C1          1.8850   -1.0360   -0.1120 C.ar      1 MOL         0.0261
      2 C2          0.8070   -0.4630    0.5610 C.ar      1 MOL         0.0261
      3 C3          2.9210   -1.6310    0.6080 C.ar      1 MOL         0.0262
      4 C4          0.7640   -0.4840    1.9550 C.ar      1 MOL         0.0260
      5 C5          2.8780   -1.6520    2.0020 C.ar      1 MOL         0.0261
      6 C6          1.8000   -1.0790    2.6760 C.ar      1 MOL         0.0260
      7 Cl1         1.9380   -1.0110   -1.8550 Cl        1 MOL        -0.0263
      8 Cl2        -0.4880    0.2810   -0.3400 Cl        1 MOL        -0.0260
      9 Cl3         4.2690   -2.3480   -0.2340 Cl        1 MOL        -0.0260
     10 Cl4        -0.5840    0.2330    2.7970 Cl        1 MOL        -0.0260
     11 Cl5         4.1730   -2.3960    2.9030 Cl        1 MOL        -0.0261
     12 Cl6         1.7460   -1.1050    4.4180 Cl        1 MOL        -0.0260
@<TRIPOS>BOND
     1    1    2 ar
     2    1    3 ar
     3    1    7 1
     4    2    4 ar
     5    2    8 1
     6    3    5 ar
     7    3    9 1
     8    4    6 ar
     9    4   10 1
    10    5    6 ar
    11    5   11 1
    12    6   12 1
