@<TRIPOS>MOLECULE
CUP08027_AM1BCC_v1_0
   35    35     0     0     0
SMALL
USER_CHARGES

@<TRIPOS>ATOM
      1 C1          1.0626   -0.4745    0.6124 C.ar      1 MOL         0.0673
      2 C2          0.5199    0.1528    1.7481 C.ar      1 MOL        -0.2988
      3 C3          2.1456   -1.3573    0.7359 C.ar      1 MOL        -0.2971
      4 C4          1.0928   -0.0941    3.0124 C.ar      1 MOL         0.3518
      5 C5          2.7174   -1.7070    1.9693 C.ar      1 MOL         0.3836
      6 C6          2.1382   -1.0651    3.0914 C.ar      1 MOL        -0.3313
      7 C7          6.2411   -2.7395    1.7948 C.3       1 MOL        -0.1186
      8 C8          3.6015   -4.9939    1.3449 C.3       1 MOL        -0.1186
      9 C9          5.0634   -2.0794    2.4949 C.3       1 MOL         0.2349
     10 C10         3.4168   -3.9838    2.4680 C.3       1 MOL         0.2349
     11 C11        -0.6809    1.0531    1.5580 C.3       1 MOL         0.7075
     12 N1          0.4918    0.4426    4.1689 N.pl3     1 MOL        -0.8384
     13 N2          3.7822   -2.6274    2.0040 N.pl3     1 MOL        -0.7310
     14 N3          2.6820   -1.9030   -0.4968 N.pl3     1 MOL         0.3283
     15 N4          2.6420   -1.3768    4.4143 N.pl3     1 MOL         0.3262
     16 O1          1.9744   -2.7264   -1.0937 O.3       1 MOL        -0.2035
     17 O2          3.7592   -1.4420   -0.8984 O.2       1 MOL        -0.2035
     18 O3          3.3031   -0.4925    4.9797 O.3       1 MOL        -0.2030
     19 O4          2.3526   -2.4786    4.8991 O.2       1 MOL        -0.2030
     20 F1         -0.6905    1.6642    0.3399 F         1 MOL        -0.2385
     21 F2         -1.8570    0.3770    1.6455 F         1 MOL        -0.2385
     22 F3         -0.7522    2.0635    2.4716 F         1 MOL        -0.2385
     23 H1          0.6409   -0.2731   -0.3743 H         1 MOL         0.1916
     24 H2          6.3244   -3.7962    2.0663 H         1 MOL         0.0494
     25 H3          6.1416   -2.6736    0.7065 H         1 MOL         0.0494
     26 H4          7.1756   -2.2487    2.0842 H         1 MOL         0.0494
     27 H5          2.9282   -4.7806    0.5097 H         1 MOL         0.0494
     28 H6          4.6240   -4.9909    0.9574 H         1 MOL         0.0494
     29 H7          3.3782   -6.0030    1.7055 H         1 MOL         0.0494
     30 H8          5.1183   -1.0019    2.2921 H         1 MOL         0.0527
     31 H9          5.1593   -2.2151    3.5781 H         1 MOL         0.0527
     32 H10         4.0341   -4.2764    3.3256 H         1 MOL         0.0527
     33 H11         2.3708   -4.0339    2.7947 H         1 MOL         0.0527
     34 H12        -0.0233    1.3164    4.0416 H         1 MOL         0.4644
     35 H13         1.0961    0.5182    4.9902 H         1 MOL         0.4644
@<TRIPOS>BOND
     1    1    2 ar
     2    1    3 ar
     3    2    4 ar
     4    2   11 1
     5    3    5 ar
     6    3   14 1
     7    4    6 ar
     8    4   12 1
     9    5    6 ar
    10    5   13 1
    11    6   15 1
    12    7    9 1
    13    8   10 1
    14    9   13 1
    15   10   13 1
    16   11   20 1
    17   11   21 1
    18   11   22 1
    19   14   16 1
    20   14   17 2
    21   15   18 1
    22   15   19 2
    23    1   23 1
    24    7   24 1
    25    7   25 1
    26    7   26 1
    27    8   27 1
    28    8   28 1
    29    8   29 1
    30    9   30 1
    31    9   31 1
    32   10   32 1
    33   10   33 1
    34   12   34 1
    35   12   35 1
