@<TRIPOS>MOLECULE
isobutyl_formate
   17    16     0     0     0
SMALL
USER_CHARGES

@<TRIPOS>ATOM
      1 C1          2.9182    2.5363    2.0759 C.2       1 MOL         0.6284
      2 C2          0.9983   -0.3578   -0.2742 C.3       1 MOL        -0.0879
      3 C3          1.1578    1.1798   -2.2511 C.3       1 MOL        -0.0879
      4 C4          1.9991    1.9493   -0.0132 C.3       1 MOL         0.1353
      5 C5          1.8182    0.7470   -0.9439 C.3       1 MOL        -0.0793
      6 O1          2.5915    3.7100    1.9939 O.2       1 MOL        -0.5347
      7 O2          2.6930    1.5517    1.1621 O.3       1 MOL        -0.4448
      8 H1          3.4579    2.1074    2.9343 H         1 MOL         0.0741
      9 H2          0.8775   -1.2129   -0.9479 H         1 MOL         0.0374
     10 H3          0.0000   -0.0000    0.0000 H         1 MOL         0.0374
     11 H4          1.4902   -0.7202    0.6344 H         1 MOL         0.0374
     12 H5          1.0535    0.3304   -2.9344 H         1 MOL         0.0374
     13 H6          1.7593    1.9426   -2.7566 H         1 MOL         0.0374
     14 H7          0.1602    1.5965   -2.0744 H         1 MOL         0.0374
     15 H8          2.5871    2.7313   -0.5051 H         1 MOL         0.0571
     16 H9          1.0318    2.3718    0.2794 H         1 MOL         0.0571
     17 H10         2.8075    0.3294   -1.1709 H         1 MOL         0.0586
@<TRIPOS>BOND
     1    1    6 2
     2    1    7 1
     3    2    5 1
     4    3    5 1
     5    4    5 1
     6    4    7 1
     7    1    8 1
     8    2    9 1
     9    2   10 1
    10    2   11 1
    11    3   12 1
    12    3   13 1
    13    3   14 1
    14    4   15 1
    15    4   16 1
    16    5   17 1
