@<TRIPOS>MOLECULE
n_propylcyclopentane
   24    24     0     0     0
SMALL
USER_CHARGES

@<TRIPOS>ATOM
      1 C1         -0.3396    0.4881   -0.9209 C.3       1 MOL        -0.0797
      2 C2         -1.6799   -0.1059   -1.3575 C.3       1 MOL        -0.0797
      3 C3          0.6372    0.2135   -2.0602 C.3       1 MOL        -0.0771
      4 C4         -1.4494   -0.6928   -2.7462 C.3       1 MOL        -0.0771
      5 C5          0.0448   -0.9981   -2.7731 C.3       1 MOL        -0.0684
      6 C6          0.5123   -2.6051   -6.2630 C.3       1 MOL        -0.0898
      7 C7          0.5910   -1.1933   -4.1767 C.3       1 MOL        -0.0677
      8 C8         -0.0551   -2.3926   -4.8687 C.3       1 MOL        -0.0776
      9 H1         -0.4173    1.5605   -0.7144 H         1 MOL         0.0390
     10 H2          0.0002    0.0002   -0.0003 H         1 MOL         0.0390
     11 H3         -1.9821   -0.8935   -0.6572 H         1 MOL         0.0390
     12 H4         -2.4754    0.6460   -1.3691 H         1 MOL         0.0390
     13 H5          0.6757    1.0791   -2.7333 H         1 MOL         0.0416
     14 H6          1.6517    0.0276   -1.6945 H         1 MOL         0.0416
     15 H7         -2.0609   -1.5831   -2.9226 H         1 MOL         0.0416
     16 H8         -1.7074    0.0501   -3.5110 H         1 MOL         0.0416
     17 H9          0.2448   -1.9030   -2.1857 H         1 MOL         0.0479
     18 H10         0.3373   -1.7289   -6.8955 H         1 MOL         0.0312
     19 H11         1.5903   -2.7909   -6.2236 H         1 MOL         0.0312
     20 H12         0.0361   -3.4682   -6.7388 H         1 MOL         0.0312
     21 H13         1.6775   -1.3351   -4.1251 H         1 MOL         0.0384
     22 H14         0.4115   -0.2845   -4.7640 H         1 MOL         0.0384
     23 H15        -1.1385   -2.2416   -4.9403 H         1 MOL         0.0382
     24 H16         0.1072   -3.2981   -4.2724 H         1 MOL         0.0382
@<TRIPOS>BOND
     1    1    2 1
     2    1    3 1
     3    2    4 1
     4    3    5 1
     5    4    5 1
     6    5    7 1
     7    6    8 1
     8    7    8 1
     9    1    9 1
    10    1   10 1
    11    2   11 1
    12    2   12 1
    13    3   13 1
    14    3   14 1
    15    4   15 1
    16    4   16 1
    17    5   17 1
    18    6   18 1
    19    6   19 1
    20    6   20 1
    21    7   21 1
    22    7   22 1
    23    8   23 1
    24    8   24 1
