@<TRIPOS>MOLECULE
SAMPL4_015
   27    27     0     0     0
SMALL
USER_CHARGES

@<TRIPOS>ATOM
      1 C1          1.0940    0.6060   -0.2990 C.2       1 MOL        -0.2612
      2 C2          0.4520    0.1760   -1.3970 C.2       1 MOL        -0.0434
      3 C3          0.5050    0.4140    1.0510 C.2       1 MOL         0.5693
      4 C4         -0.8540   -0.5730   -1.3420 C.3       1 MOL        -0.0612
      5 C5         -1.1360   -1.1690    0.0360 C.3       1 MOL        -0.0704
      6 C6         -0.9130   -0.1390    1.1420 C.3       1 MOL        -0.1557
      7 C7          1.0070    0.4220   -2.7700 C.3       1 MOL        -0.0729
      8 C8         -2.6760   -0.8230    2.7940 C.3       1 MOL        -0.0901
      9 C9         -0.5530   -2.1500    2.6020 C.3       1 MOL        -0.0901
     10 C10        -1.1760   -0.7580    2.5120 C.3       1 MOL        -0.0617
     11 O1          1.1470    0.7650    2.0390 O.2       1 MOL        -0.5361
     12 H1          2.0420    1.1290   -0.3550 H         1 MOL         0.1480
     13 H2         -1.6640    0.1090   -1.6270 H         1 MOL         0.0572
     14 H3         -0.8470   -1.3900   -2.0740 H         1 MOL         0.0572
     15 H4         -2.1650   -1.5450    0.0650 H         1 MOL         0.0527
     16 H5         -0.4770   -2.0340    0.1930 H         1 MOL         0.0527
     17 H6         -1.5980    0.7080    1.0040 H         1 MOL         0.0717
     18 H7          1.6530   -0.4050   -3.0530 H         1 MOL         0.0507
     19 H8          1.5780    1.3480   -2.7690 H         1 MOL         0.0507
     20 H9          0.1890    0.5080   -3.4810 H         1 MOL         0.0507
     21 H10        -3.1930   -1.4490    2.0580 H         1 MOL         0.0350
     22 H11        -3.1210    0.1770    2.7600 H         1 MOL         0.0350
     23 H12        -2.8670   -1.2410    3.7880 H         1 MOL         0.0350
     24 H13        -0.9850   -2.8280    1.8580 H         1 MOL         0.0350
     25 H14        -0.7150   -2.5860    3.5930 H         1 MOL         0.0350
     26 H15         0.5280   -2.1030    2.4300 H         1 MOL         0.0350
     27 H16        -0.7100   -0.1220    3.2750 H         1 MOL         0.0717
@<TRIPOS>BOND
     1    1    2 2
     2    1    3 1
     3    2    4 1
     4    2    7 1
     5    3    6 1
     6    3   11 2
     7    4    5 1
     8    5    6 1
     9    6   10 1
    10    8   10 1
    11    9   10 1
    12    1   12 1
    13    4   13 1
    14    4   14 1
    15    5   15 1
    16    5   16 1
    17    6   17 1
    18    7   18 1
    19    7   19 1
    20    7   20 1
    21    8   21 1
    22    8   22 1
    23    8   23 1
    24    9   24 1
    25    9   25 1
    26    9   26 1
    27   10   27 1
