@<TRIPOS>MOLECULE
pyridine
   11    11     0     0     0
SMALL
USER_CHARGES

@<TRIPOS>ATOM
      1 C1          1.2858   -0.0601    1.7333 C.ar      1 MOL        -0.0932
      2 C2          0.1842   -0.4388    0.9739 C.ar      1 MOL        -0.2466
      3 C3          1.4967   -0.6399    2.9793 C.ar      1 MOL        -0.2466
      4 C4         -0.6697   -1.3939    1.5014 C.ar      1 MOL         0.3930
      5 C5          0.5838   -1.5858    3.4172 C.ar      1 MOL         0.3930
      6 N1         -0.4976   -1.9792    2.7078 N.ar      1 MOL        -0.6652
      7 H1          1.9788    0.6851    1.3547 H         1 MOL         0.1374
      8 H2          0.0002   -0.0002   -0.0005 H         1 MOL         0.1427
      9 H3          2.3487   -0.3604    3.5885 H         1 MOL         0.1427
     10 H4         -1.5433   -1.7237    0.9484 H         1 MOL         0.0215
     11 H5          0.7027   -2.0679    4.3821 H         1 MOL         0.0215
@<TRIPOS>BOND
     1    1    2 ar
     2    1    3 ar
     3    2    4 ar
     4    3    5 ar
     5    4    6 ar
     6    5    6 ar
     7    1    7 1
     8    2    8 1
     9    3    9 1
    10    4   10 1
    11    5   11 1
