@<TRIPOS>MOLECULE
NN_dimethylbenzamide
   22    22     0     0     0
SMALL
USER_CHARGES

@<TRIPOS>ATOM
      1 C1          1.7423   -1.1605   -0.1510 C.ar      1 MOL        -0.1149
      2 C2          0.6920   -0.5509    0.5350 C.ar      1 MOL        -0.1351
      3 C3          2.8148   -1.7042    0.5560 C.ar      1 MOL        -0.1351
      4 C4          0.7142   -0.4848    1.9282 C.ar      1 MOL        -0.0966
      5 C5          2.8370   -1.6382    1.9492 C.ar      1 MOL        -0.0966
      6 C6          1.7866   -1.0286    2.6354 C.ar      1 MOL        -0.1304
      7 C7          1.8097   -0.9593    4.0876 C.2       1 MOL         0.6705
      8 C8          1.2309   -2.0171    6.2849 C.3       1 MOL         0.0844
      9 C9          0.5966   -3.1554    4.1871 C.3       1 MOL         0.0844
     10 N1          1.2327   -2.0070    4.8288 N.am      1 MOL        -0.4824
     11 O1          2.3571    0.0291    4.5943 O.2       1 MOL        -0.5941
     12 H1          1.7249   -1.2119   -1.2358 H         1 MOL         0.1346
     13 H2         -0.1429   -0.1274   -0.0154 H         1 MOL         0.1365
     14 H3          3.6322   -2.1796    0.0217 H         1 MOL         0.1365
     15 H4         -0.1098   -0.0071    2.4522 H         1 MOL         0.1434
     16 H5          3.6779   -2.0655    2.4897 H         1 MOL         0.1434
     17 H6          0.1969   -1.9894    6.6344 H         1 MOL         0.0419
     18 H7          1.7735   -1.1398    6.6437 H         1 MOL         0.0419
     19 H8          1.7216   -2.9289    6.6316 H         1 MOL         0.0419
     20 H9         -0.3336   -3.3802    4.7129 H         1 MOL         0.0419
     21 H10         1.2754   -4.0094    4.2407 H         1 MOL         0.0419
     22 H11         0.3893   -2.9064    3.1442 H         1 MOL         0.0419
@<TRIPOS>BOND
     1    1    2 ar
     2    1    3 ar
     3    2    4 ar
     4    3    5 ar
     5    4    6 ar
     6    5    6 ar
     7    6    7 1
     8    7   10 am
     9    7   11 2
    10    8   10 1
    11    9   10 1
    12    1   12 1
    13    2   13 1
    14    3   14 1
    15    4   15 1
    16    5   16 1
    17    8   17 1
    18    8   18 1
    19    8   19 1
    20    9   20 1
    21    9   21 1
    22    9   22 1
