@<TRIPOS>MOLECULE
cyclohexane
   18    18     0     0     0
SMALL
USER_CHARGES

@<TRIPOS>ATOM
      1 C1          0.1105   -1.0856    0.1131 C.3       1 MOL        -0.0738
      2 C2          1.2040   -1.3799    1.1364 C.3       1 MOL        -0.0738
      3 C3         -1.2275   -1.6906    0.5295 C.3       1 MOL        -0.0738
      4 C4          0.7971   -0.9348    2.5386 C.3       1 MOL        -0.0738
      5 C5         -1.6344   -1.2454    1.9315 C.3       1 MOL        -0.0738
      6 C6         -0.5409   -1.5397    2.9549 C.3       1 MOL        -0.0738
      7 H1          0.0001   -0.0000   -0.0000 H         1 MOL         0.0369
      8 H2          0.4053   -1.4803   -0.8657 H         1 MOL         0.0369
      9 H3          1.4165   -2.4561    1.1431 H         1 MOL         0.0369
     10 H4          2.1302   -0.8733    0.8428 H         1 MOL         0.0369
     11 H5         -2.0028   -1.4012   -0.1890 H         1 MOL         0.0369
     12 H6         -1.1571   -2.7850    0.5008 H         1 MOL         0.0369
     13 H7          1.5724   -1.2243    3.2570 H         1 MOL         0.0369
     14 H8          0.7268    0.1595    2.5672 H         1 MOL         0.0369
     15 H9         -1.8468   -0.1691    1.9248 H         1 MOL         0.0369
     16 H10        -2.5606   -1.7519    2.2252 H         1 MOL         0.0369
     17 H11        -0.4306   -2.6253    3.0680 H         1 MOL         0.0369
     18 H12        -0.8356   -1.1449    3.9337 H         1 MOL         0.0369
@<TRIPOS>BOND
     1    1    2 1
     2    1    3 1
     3    2    4 1
     4    3    5 1
     5    4    6 1
     6    5    6 1
     7    1    7 1
     8    1    8 1
     9    2    9 1
    10    2   10 1
    11    3   11 1
    12    3   12 1
    13    4   13 1
    14    4   14 1
    15    5   15 1
    16    5   16 1
    17    6   17 1
    18    6   18 1
