@<TRIPOS>MOLECULE
ethyl_butanoate
   20    19     0     0     0
SMALL
USER_CHARGES

@<TRIPOS>ATOM
      1 C1          2.6749   -0.7723    3.1243 C.2       1 MOL         0.6323
      2 C2         -0.3781   -0.6942    0.7529 C.3       1 MOL        -0.0940
      3 C3          6.2701   -1.3321    3.5399 C.3       1 MOL        -0.1115
      4 C4          1.8852   -0.8881    1.8405 C.3       1 MOL        -0.1263
      5 C5          0.4001   -0.6068    2.0556 C.3       1 MOL        -0.0749
      6 C6          4.8658   -0.9912    3.9907 C.3       1 MOL         0.1390
      7 O1          2.2091   -0.4717    4.2148 O.2       1 MOL        -0.5401
      8 O2          3.9853   -1.0584    2.8643 O.3       1 MOL        -0.4480
      9 H1         -1.4384   -0.4883    0.9301 H         1 MOL         0.0372
     10 H2         -0.0074    0.0344    0.0247 H         1 MOL         0.0372
     11 H3         -0.2951   -1.6932    0.3128 H         1 MOL         0.0372
     12 H4          6.9704   -1.2895    4.3788 H         1 MOL         0.0468
     13 H5          6.3024   -2.3356    3.1030 H         1 MOL         0.0468
     14 H6          6.6058   -0.6362    2.7639 H         1 MOL         0.0468
     15 H7          2.2964   -0.1716    1.1205 H         1 MOL         0.0763
     16 H8          2.0160   -1.9032    1.4493 H         1 MOL         0.0763
     17 H9         -0.0159   -1.3233    2.7741 H         1 MOL         0.0532
     18 H10         0.2672    0.3908    2.4908 H         1 MOL         0.0532
     19 H11         4.8309    0.0206    4.4056 H         1 MOL         0.0564
     20 H12         4.5228   -1.7015    4.7490 H         1 MOL         0.0564
@<TRIPOS>BOND
     1    1    4 1
     2    1    7 2
     3    1    8 1
     4    2    5 1
     5    3    6 1
     6    4    5 1
     7    6    8 1
     8    2    9 1
     9    2   10 1
    10    2   11 1
    11    3   12 1
    12    3   13 1
    13    3   14 1
    14    4   15 1
    15    4   16 1
    16    5   17 1
    17    5   18 1
    18    6   19 1
    19    6   20 1
