@<TRIPOS>MOLECULE
etgd.xyz	      0.0000000
   20    19     0     0     0
SMALL
USER_CHARGES

@<TRIPOS>ATOM
      1 C1          1.5005    0.0000    0.0000 C.2       1 <0>         0.6513
      2 C2          3.0803   -0.0743   -2.9305 C.2       1 <0>         0.6512
      3 C3          0.0000    0.0000    0.0000 C.3       1 <0>        -0.1552
      4 C4          3.4592   -1.4092   -3.5017 C.3       1 <0>        -0.1552
      5 C5          3.3847    1.4490   -0.0738 C.3       1 <0>         0.1153
      6 C6          3.8652    1.6533   -1.4970 C.3       1 <0>         0.1151
      7 O1          2.1852   -0.9748   -0.0080 O.2       1 <0>        -0.5383
      8 O2          2.0370    0.4738   -3.1047 O.2       1 <0>        -0.5384
      9 O3          1.9841    1.2367    0.0000 O.3       1 <0>        -0.4290
     10 O4          4.0579    0.4277   -2.1851 O.3       1 <0>        -0.4290
     11 H1         -0.3409    0.3739   -0.9590 H         1 <0>         0.0791
     12 H2         -0.3762    0.6595    0.7725 H         1 <0>         0.0661
     13 H3         -0.3614   -1.0065    0.1508 H         1 <0>         0.0705
     14 H4          4.4346   -1.3547   -3.9692 H         1 <0>         0.0660
     15 H5          3.5135   -2.1251   -2.6891 H         1 <0>         0.0791
     16 H6          2.7123   -1.7214   -4.2165 H         1 <0>         0.0705
     17 H7          3.9117    0.6314    0.3961 H         1 <0>         0.0702
     18 H8          3.5585    2.3614    0.4818 H         1 <0>         0.0703
     19 H9          3.1831    2.2862   -2.0456 H         1 <0>         0.0702
     20 H10         4.8443    2.1135   -1.4665 H         1 <0>         0.0703
@<TRIPOS>BOND
     1    1    3 1
     2    1    7 2
     3    1    9 1
     4    2    4 1
     5    2    8 2
     6    2   10 1
     7    5    6 1
     8    5    9 1
     9    6   10 1
    10    3   11 1
    11    3   12 1
    12    3   13 1
    13    4   14 1
    14    4   15 1
    15    4   16 1
    16    5   17 1
    17    5   18 1
    18    6   19 1
    19    6   20 1
