@<TRIPOS>MOLECULE
23_dimethylphenol
   19    19     0     0     0
SMALL
USER_CHARGES

@<TRIPOS>ATOM
      1 C1          0.8159   -0.4438    0.5629 C.ar      1 MOL        -0.0938
      2 C2          1.8852   -1.0364   -0.1086 C.ar      1 MOL        -0.1613
      3 C3          0.7945   -0.4211    1.9574 C.ar      1 MOL        -0.2148
      4 C4          2.9331   -1.6064    0.6143 C.ar      1 MOL        -0.0383
      5 C5          2.9117   -1.5837    2.0089 C.ar      1 MOL        -0.0907
      6 C6          1.8424   -0.9911    2.6804 C.ar      1 MOL         0.1259
      7 C7          4.0662   -2.2347   -0.1287 C.3       1 MOL        -0.0616
      8 C8          4.0323   -2.1935    2.7890 C.3       1 MOL        -0.0522
      9 O1          1.8038   -0.9591    4.0421 O.3       1 MOL        -0.5019
     10 H1         -0.0003    0.0000   -0.0000 H         1 MOL         0.1316
     11 H2          1.8931   -1.0492   -1.1955 H         1 MOL         0.1324
     12 H3         -0.0410    0.0432    2.4738 H         1 MOL         0.1316
     13 H4          4.8418   -2.5664    0.5712 H         1 MOL         0.0449
     14 H5          3.7269   -3.1005   -0.7106 H         1 MOL         0.0449
     15 H6          4.5144   -1.5286   -0.8387 H         1 MOL         0.0449
     16 H7          4.5386   -1.4268    3.3855 H         1 MOL         0.0467
     17 H8          3.6639   -2.9761    3.4626 H         1 MOL         0.0467
     18 H9          4.7666   -2.6626    2.1235 H         1 MOL         0.0467
     19 H10         1.1485   -0.2945    4.3214 H         1 MOL         0.4184
@<TRIPOS>BOND
     1    1    2 ar
     2    1    3 ar
     3    2    4 ar
     4    3    6 ar
     5    4    5 ar
     6    4    7 1
     7    5    6 ar
     8    5    8 1
     9    6    9 1
    10    1   10 1
    11    2   11 1
    12    3   12 1
    13    7   13 1
    14    7   14 1
    15    7   15 1
    16    8   16 1
    17    8   17 1
    18    8   18 1
    19    9   19 1
