@<TRIPOS>MOLECULE
CUP08025_AM1BCC_v1_0
   19    19     0     0     0
SMALL
USER_CHARGES

@<TRIPOS>ATOM
      1 C1          1.5633   -1.3628    0.0571 C.ar      1 MOL        -0.1323
      2 C2          0.6691   -0.5288    0.7324 C.ar      1 MOL        -0.0887
      3 C3          2.7440   -1.7701    2.1280 C.ar      1 MOL        -0.1183
      4 C4          1.8745   -0.9006    2.8035 C.ar      1 MOL         0.1529
      5 C5          2.6008   -1.9888    0.7535 C.ar      1 MOL         0.0640
      6 C6          0.8179   -0.3042    2.1035 C.ar      1 MOL        -0.0078
      7 C7          3.8139   -2.4336    2.8765 C.2       1 MOL         0.6672
      8 C8          2.7857    0.4460    4.4425 C.3       1 MOL         0.1121
      9 O1          4.8272   -1.9120    3.2973 O.2       1 MOL        -0.5399
     10 O2          3.5172   -3.7292    3.0707 O.3       1 MOL        -0.5834
     11 O3          2.0064   -0.7196    4.1582 O.3       1 MOL        -0.3375
     12 Cl1         3.6772   -2.9975   -0.1452 Cl        1 MOL        -0.0586
     13 Cl2        -0.3442    0.7007    2.8906 Cl        1 MOL        -0.0590
     14 H1          1.4396   -1.5264   -1.0116 H         1 MOL         0.1600
     15 H2         -0.1464   -0.0617    0.1842 H         1 MOL         0.1585
     16 H3          3.0481    0.4204    5.5043 H         1 MOL         0.0542
     17 H4          2.2059    1.3557    4.2589 H         1 MOL         0.0542
     18 H5          3.7150    0.4737    3.8634 H         1 MOL         0.0542
     19 H6          4.2718   -4.0805    3.5880 H         1 MOL         0.4483
@<TRIPOS>BOND
     1    1    2 ar
     2    1    5 ar
     3    2    6 ar
     4    3    4 ar
     5    3    5 ar
     6    3    7 1
     7    4    6 ar
     8    4   11 1
     9    5   12 1
    10    6   13 1
    11    7    9 2
    12    7   10 1
    13    8   11 1
    14    1   14 1
    15    2   15 1
    16    8   16 1
    17    8   17 1
    18    8   18 1
    19   10   19 1
