@<TRIPOS>MOLECULE
methyl_cyclopropanecarboxylate
   15    15     0     0     0
SMALL
USER_CHARGES

@<TRIPOS>ATOM
      1 C1         -1.5829    0.1981    0.8839 C.2       1 MOL         0.6573
      2 C2          0.4281    1.7842    0.8223 C.3       1 MOL        -0.1043
      3 C3          0.8600    0.5025    0.1723 C.3       1 MOL        -0.1043
      4 C4         -0.5664    0.9397    0.0948 C.3       1 MOL        -0.1904
      5 C5         -3.6988    0.3438    1.9201 C.3       1 MOL         0.1282
      6 O1         -1.4126   -0.9670    1.2135 O.2       1 MOL        -0.5380
      7 O2         -2.6640    0.9772    1.1610 O.3       1 MOL        -0.4361
      8 H1          0.3660    1.8080    1.9034 H         1 MOL         0.0817
      9 H2          0.7611    2.7120    0.3730 H         1 MOL         0.0817
     10 H3          1.4825    0.5708   -0.7115 H         1 MOL         0.0817
     11 H4          1.0904   -0.3362    0.8179 H         1 MOL         0.0817
     12 H5         -0.9279    1.2992   -0.8562 H         1 MOL         0.1111
     13 H6         -4.6721    0.5967    1.4926 H         1 MOL         0.0499
     14 H7         -3.6470    0.6791    2.9590 H         1 MOL         0.0499
     15 H8         -3.5564   -0.7388    1.8811 H         1 MOL         0.0499
@<TRIPOS>BOND
     1    1    4 1
     2    1    6 2
     3    1    7 1
     4    2    3 1
     5    2    4 1
     6    3    4 1
     7    5    7 1
     8    2    8 1
     9    2    9 1
    10    3   10 1
    11    3   11 1
    12    4   12 1
    13    5   13 1
    14    5   14 1
    15    5   15 1
