@<TRIPOS>MOLECULE
isobutyraldehyde
   13    12     0     0     0
SMALL
USER_CHARGES

@<TRIPOS>ATOM
      1 C1         -2.1993    0.5040    1.5020 C.2       1 MOL         0.5627
      2 C2         -0.4393   -0.8920    0.4598 C.3       1 MOL        -0.0844
      3 C3         -2.5622   -1.9747    1.2574 C.3       1 MOL        -0.0844
      4 C4         -1.9421   -0.7229    0.6486 C.3       1 MOL        -0.1830
      5 O1         -2.8146    0.4990    2.5633 O.2       1 MOL        -0.5202
      6 H1         -1.8235    1.4547    1.0842 H         1 MOL        -0.0077
      7 H2          0.0000    0.0000    0.0000 H         1 MOL         0.0410
      8 H3         -0.2200   -1.7475   -0.1872 H         1 MOL         0.0410
      9 H4          0.0663   -1.0486    1.4193 H         1 MOL         0.0410
     10 H5         -2.3870   -2.8471    0.6192 H         1 MOL         0.0410
     11 H6         -3.6448   -1.8560    1.3752 H         1 MOL         0.0410
     12 H7         -2.1435   -2.1865    2.2474 H         1 MOL         0.0410
     13 H8         -2.4061   -0.5326   -0.3263 H         1 MOL         0.0713
@<TRIPOS>BOND
     1    1    4 1
     2    1    5 2
     3    2    4 1
     4    3    4 1
     5    1    6 1
     6    2    7 1
     7    2    8 1
     8    2    9 1
     9    3   10 1
    10    3   11 1
    11    3   12 1
    12    4   13 1
