@<TRIPOS>MOLECULE
isoamyl_acetate
   23    22     0     0     0
SMALL
USER_CHARGES

@<TRIPOS>ATOM
      1 C1         -1.3189   -2.1664   -5.8599 C.2       1 MOL         0.6303
      2 C2         -0.8362   -1.5097   -7.1176 C.3       1 MOL        -0.1460
      3 C3         -2.1890   -1.7197   -0.7224 C.3       1 MOL        -0.0886
      4 C4         -0.2099   -3.2506   -0.7601 C.3       1 MOL        -0.0886
      5 C5         -0.3808   -1.3238   -2.4187 C.3       1 MOL        -0.0932
      6 C6         -1.1136   -2.0995   -3.5067 C.3       1 MOL         0.1414
      7 C7         -0.6860   -1.8165   -0.9949 C.3       1 MOL        -0.0640
      8 O1         -2.1137   -3.0964   -5.8339 O.2       1 MOL        -0.5435
      9 O2         -0.7406   -1.5710   -4.7733 O.3       1 MOL        -0.4466
     10 H1          0.2468   -1.6260   -7.2046 H         1 MOL         0.0742
     11 H2         -1.1113   -0.4520   -7.1128 H         1 MOL         0.0742
     12 H3         -1.3087   -1.9878   -7.9806 H         1 MOL         0.0742
     13 H4         -2.4199   -2.0310    0.3019 H         1 MOL         0.0338
     14 H5         -2.7592   -2.3568   -1.4070 H         1 MOL         0.0338
     15 H6         -2.5413   -0.6899   -0.8443 H         1 MOL         0.0338
     16 H7         -0.6464   -3.9387   -1.4920 H         1 MOL         0.0338
     17 H8         -0.4953   -3.5956    0.2396 H         1 MOL         0.0338
     18 H9          0.8796   -3.3251   -0.8289 H         1 MOL         0.0338
     19 H10         0.6985   -1.3957   -2.6079 H         1 MOL         0.0532
     20 H11        -0.6213   -0.2567   -2.5134 H         1 MOL         0.0532
     21 H12        -0.8430   -3.1597   -3.4801 H         1 MOL         0.0582
     22 H13        -2.1983   -2.0026   -3.4059 H         1 MOL         0.0582
     23 H14        -0.1722   -1.1627   -0.2788 H         1 MOL         0.0505
@<TRIPOS>BOND
     1    1    2 1
     2    1    8 2
     3    1    9 1
     4    3    7 1
     5    4    7 1
     6    5    6 1
     7    5    7 1
     8    6    9 1
     9    2   10 1
    10    2   11 1
    11    2   12 1
    12    3   13 1
    13    3   14 1
    14    3   15 1
    15    4   16 1
    16    4   17 1
    17    4   18 1
    18    5   19 1
    19    5   20 1
    20    6   21 1
    21    6   22 1
    22    7   23 1
