@<TRIPOS>MOLECULE
CUP08055_AM1BCC_v1_0
   20    19     0     0     0
SMALL
USER_CHARGES

@<TRIPOS>ATOM
      1 C1          2.0018   -1.0984   -1.7613 C.3       1 MOL         0.1640
      2 C2          0.2423    2.4467   -1.9785 C.3       1 MOL         0.1640
      3 C3         -1.7470   -0.9081   -2.9060 C.3       1 MOL        -0.0701
      4 C4         -1.8122   -2.2038   -2.0869 C.3       1 MOL         0.2535
      5 O1          0.5921    0.2729   -3.9114 O.2       1 MOL        -0.7671
      6 O2         -1.9320   -1.1351   -4.3316 O.3       1 MOL        -0.5802
      7 O3          0.6400   -0.7877   -1.5486 O.3       1 MOL        -0.5695
      8 O4         -0.6431    1.3467   -1.8876 O.3       1 MOL        -0.5695
      9 P1         -0.2104   -0.0018   -2.6758 P.3       1 MOL         1.4604
     10 Cl1        -3.4590   -2.9341   -2.3633 Cl        1 MOL        -0.0993
     11 Cl2        -0.6331   -3.4403   -2.6018 Cl        1 MOL        -0.0993
     12 Cl3        -1.6787   -1.9216   -0.3289 Cl        1 MOL        -0.0993
     13 H1          2.4449   -1.3908   -0.8058 H         1 MOL         0.0456
     14 H2          2.5499   -0.2382   -2.1508 H         1 MOL         0.0456
     15 H3          2.0868   -1.9376   -2.4565 H         1 MOL         0.0456
     16 H4         -0.0918    3.2230   -1.2855 H         1 MOL         0.0456
     17 H5          0.2312    2.8505   -2.9942 H         1 MOL         0.0456
     18 H6          1.2567    2.1420   -1.7068 H         1 MOL         0.0456
     19 H7         -2.5713   -0.2473   -2.6179 H         1 MOL         0.1032
     20 H8         -2.7880   -1.5848   -4.4612 H         1 MOL         0.4360
@<TRIPOS>BOND
     1    1    7 1
     2    2    8 1
     3    3    4 1
     4    3    6 1
     5    3    9 1
     6    4   10 1
     7    4   11 1
     8    4   12 1
     9    5    9 2
    10    7    9 1
    11    8    9 1
    12    1   13 1
    13    1   14 1
    14    1   15 1
    15    2   16 1
    16    2   17 1
    17    2   18 1
    18    3   19 1
    19    6   20 1
