@<TRIPOS>MOLECULE
hept_1_yne
   19    18     0     0     0
SMALL
USER_CHARGES

@<TRIPOS>ATOM
      1 C1          1.4731    1.7273    7.8631 C.1       1 MOL        -0.1626
      2 C2          1.4164    0.9600    6.9415 C.1       1 MOL        -0.1303
      3 C3          0.3156   -0.5244    0.9080 C.3       1 MOL        -0.0900
      4 C4          1.3493    0.0173    5.8164 C.3       1 MOL        -0.0094
      5 C5          0.3835    0.4440    2.0781 C.3       1 MOL        -0.0779
      6 C6          0.8999    0.7191    4.5349 C.3       1 MOL        -0.0739
      7 C7          0.8647   -0.2502    3.3519 C.3       1 MOL        -0.0788
      8 H1          1.5240    2.4078    8.6807 H         1 MOL         0.1629
      9 H2         -0.0314   -0.0077    0.0077 H         1 MOL         0.0321
     10 H3         -0.3781   -1.3448    1.1174 H         1 MOL         0.0321
     11 H4          1.3004   -0.9525    0.6955 H         1 MOL         0.0321
     12 H5          2.3339   -0.4400    5.6638 H         1 MOL         0.0574
     13 H6          0.6528   -0.7935    6.0600 H         1 MOL         0.0574
     14 H7          1.0606    1.2679    1.8241 H         1 MOL         0.0389
     15 H8         -0.6093    0.8787    2.2430 H         1 MOL         0.0389
     16 H9         -0.0956    1.1574    4.6813 H         1 MOL         0.0466
     17 H10         1.5802    1.5504    4.3091 H         1 MOL         0.0466
     18 H11         1.8665   -0.6657    3.1877 H         1 MOL         0.0391
     19 H12         0.2001   -1.0909    3.5855 H         1 MOL         0.0391
@<TRIPOS>BOND
     1    1    2 3
     2    2    4 1
     3    3    5 1
     4    4    6 1
     5    5    7 1
     6    6    7 1
     7    1    8 1
     8    3    9 1
     9    3   10 1
    10    3   11 1
    11    4   12 1
    12    4   13 1
    13    5   14 1
    14    5   15 1
    15    6   16 1
    16    6   17 1
    17    7   18 1
    18    7   19 1
