@<TRIPOS>MOLECULE
phenanthrene
   24    26     0     0     0
SMALL
USER_CHARGES

@<TRIPOS>ATOM
      1 C1         -6.2595   -1.8287   -4.9901 C.ar      1 MOL        -0.1272
      2 C2         -0.8187   -0.2776   -0.6568 C.ar      1 MOL        -0.1272
      3 C3         -5.4961   -2.8780   -4.5024 C.ar      1 MOL        -0.1279
      4 C4         -1.0496   -1.6102   -0.9606 C.ar      1 MOL        -0.1279
      5 C5         -5.9453   -0.5234   -4.6253 C.ar      1 MOL        -0.1180
      6 C6         -1.6435    0.7031   -1.1991 C.ar      1 MOL        -0.1180
      7 C7         -4.4190   -2.6207   -3.6498 C.ar      1 MOL        -0.1185
      8 C8         -2.1052   -1.9609   -1.8068 C.ar      1 MOL        -0.1185
      9 C9         -4.5785    1.0723   -3.4234 C.ar      1 MOL        -0.1162
     10 C10        -3.5165    1.3751   -2.5775 C.ar      1 MOL        -0.1162
     11 C11        -4.8648   -0.2507   -3.7690 C.ar      1 MOL        -0.0359
     12 C12        -2.7084    0.3641   -2.0513 C.ar      1 MOL        -0.0359
     13 C13        -4.0666   -1.3058   -3.2548 C.ar      1 MOL        -0.0192
     14 C14        -2.9675   -0.9924   -2.3791 C.ar      1 MOL        -0.0192
     15 H1         -7.0979   -2.0227   -5.6521 H         1 MOL         0.1329
     16 H2         -0.0005    0.0008    0.0003 H         1 MOL         0.1329
     17 H3         -5.7336   -3.9005   -4.7811 H         1 MOL         0.1322
     18 H4         -0.4114   -2.3830   -0.5425 H         1 MOL         0.1322
     19 H5         -6.5569    0.2867   -5.0187 H         1 MOL         0.1327
     20 H6         -1.4459    1.7438   -0.9479 H         1 MOL         0.1327
     21 H7         -3.8565   -3.4824   -3.2995 H         1 MOL         0.1321
     22 H8         -2.2376   -3.0205   -2.0092 H         1 MOL         0.1321
     23 H9         -5.1822    1.8910   -3.8105 H         1 MOL         0.1331
     24 H10        -3.3290    2.4195   -2.3350 H         1 MOL         0.1331
@<TRIPOS>BOND
     1    1    3 ar
     2    1    5 ar
     3    2    4 ar
     4    2    6 ar
     5    3    7 ar
     6    4    8 ar
     7    5   11 ar
     8    6   12 ar
     9    7   13 ar
    10    8   14 ar
    11    9   10 ar
    12    9   11 ar
    13   10   12 ar
    14   11   13 ar
    15   12   14 ar
    16   13   14 ar
    17    1   15 1
    18    2   16 1
    19    3   17 1
    20    4   18 1
    21    5   19 1
    22    6   20 1
    23    7   21 1
    24    8   22 1
    25    9   23 1
    26   10   24 1
