@<TRIPOS>MOLECULE
4_chloro_3_methylphenol
   16    16     0     0     0
SMALL
USER_CHARGES

@<TRIPOS>ATOM
      1 C1          0.8178   -0.4385    0.5644 C.ar      1 MOL        -0.1546
      2 C2          0.7994   -0.4058    1.9588 C.ar      1 MOL        -0.0872
      3 C3          2.9371   -1.5972    0.6197 C.ar      1 MOL        -0.2101
      4 C4          2.9185   -1.5646    2.0141 C.ar      1 MOL        -0.0164
      5 C5          1.8867   -1.0341   -0.1051 C.ar      1 MOL         0.1302
      6 C6          1.8497   -0.9689    2.6836 C.ar      1 MOL        -0.0226
      7 C7          4.0628   -2.1788    2.7538 C.3       1 MOL        -0.0656
      8 O1          1.9045   -1.0658   -1.4657 O.3       1 MOL        -0.4960
      9 Cl1         1.7922   -0.9096    4.4076 Cl        1 MOL        -0.0975
     10 H1         -0.0033    0.0018    0.0052 H         1 MOL         0.1555
     11 H2         -0.0408    0.0622    2.4654 H         1 MOL         0.1494
     12 H3          3.7683   -2.0604    0.0935 H         1 MOL         0.1380
     13 H4          4.5643   -1.4241    3.3699 H         1 MOL         0.0519
     14 H5          3.7215   -2.9924    3.4049 H         1 MOL         0.0519
     15 H6          4.7958   -2.6093    2.0609 H         1 MOL         0.0519
     16 H7          2.6748   -1.5862   -1.7584 H         1 MOL         0.4212
@<TRIPOS>BOND
     1    1    2 ar
     2    1    5 ar
     3    2    6 ar
     4    3    4 ar
     5    3    5 ar
     6    4    6 ar
     7    4    7 1
     8    5    8 1
     9    6    9 1
    10    1   10 1
    11    2   11 1
    12    3   12 1
    13    7   13 1
    14    7   14 1
    15    7   15 1
    16    8   16 1
