@<TRIPOS>MOLECULE
methoxyflurane
   12    11     0     0     0
SMALL
USER_CHARGES

@<TRIPOS>ATOM
      1 C1         -0.1039   -0.6279    0.8892 C.3       1 MOL         0.1221
      2 C2          2.2982   -1.0595    3.6818 C.3       1 MOL         0.1011
      3 C3          1.0259   -1.2531    2.8738 C.3       1 MOL         0.6010
      4 O1          1.0674   -0.4786    1.6791 O.3       1 MOL        -0.4374
      5 F1         -0.0653   -0.9058    3.5984 F         1 MOL        -0.2328
      6 F2          0.8923   -2.5596    2.5312 F         1 MOL        -0.2328
      7 Cl1         2.5218    0.6541    4.1193 Cl        1 MOL        -0.1014
      8 Cl2         2.2549   -2.0459    5.1645 Cl        1 MOL        -0.1014
      9 H1          0.0060   -1.4951    0.2335 H         1 MOL         0.0541
     10 H2         -0.2605    0.2751    0.2938 H         1 MOL         0.0541
     11 H3         -0.9610   -0.7797    1.5496 H         1 MOL         0.0541
     12 H4          3.1747   -1.3677    3.1047 H         1 MOL         0.1192
@<TRIPOS>BOND
     1    1    4 1
     2    2    3 1
     3    2    7 1
     4    2    8 1
     5    3    4 1
     6    3    5 1
     7    3    6 1
     8    1    9 1
     9    1   10 1
    10    1   11 1
    11    2   12 1
