@<TRIPOS>MOLECULE
ethanol
    9     8     0     0     0
SMALL
USER_CHARGES

@<TRIPOS>ATOM
      1 C1          1.0616   -0.2681   -0.0006 C.3       1 MOL        -0.1329
      2 C2          1.9101    0.9126   -0.4220 C.3       1 MOL         0.1287
      3 O1          1.5170    1.3236   -1.7228 O.3       1 MOL        -0.6015
      4 H1          1.3397   -0.6112    0.9998 H         1 MOL         0.0414
      5 H2          0.0000    0.0000    0.0000 H         1 MOL         0.0414
      6 H3          1.1797   -1.0988   -0.7043 H         1 MOL         0.0414
      7 H4          2.9684    0.6361   -0.4446 H         1 MOL         0.0423
      8 H5          1.7730    1.7499    0.2687 H         1 MOL         0.0423
      9 H6          2.1582    0.9419   -2.3447 H         1 MOL         0.3967
@<TRIPOS>BOND
     1    1    2 1
     2    2    3 1
     3    1    4 1
     4    1    5 1
     5    1    6 1
     6    2    7 1
     7    2    8 1
     8    3    9 1
