@<TRIPOS>MOLECULE
3_acetylpyridine
   16    16     0     0     0
SMALL
USER_CHARGES

@<TRIPOS>ATOM
      1 C1          0.2061   -0.4420    0.9680 C.ar      1 MOL        -0.2610
      2 C2          1.3347   -0.0801    1.6952 C.ar      1 MOL        -0.0465
      3 C3         -0.6461   -1.3849    1.5199 C.ar      1 MOL         0.4207
      4 C4          0.6597   -1.5966    3.3985 C.ar      1 MOL         0.4414
      5 C5          1.5731   -0.6637    2.9345 C.ar      1 MOL        -0.2947
      6 C6          2.7429   -0.3065    3.7179 C.2       1 MOL         0.5779
      7 C7          2.9887   -0.9570    5.0760 C.3       1 MOL        -0.1945
      8 N1         -0.4477   -1.9735    2.7207 N.ar      1 MOL        -0.6730
      9 O1          3.5715    0.5323    3.3083 O.2       1 MOL        -0.5298
     10 H1         -0.0001    0.0001    0.0000 H         1 MOL         0.1488
     11 H2          2.0212    0.6571    1.2875 H         1 MOL         0.1517
     12 H3         -1.5405   -1.7009    0.9932 H         1 MOL         0.0264
     13 H4          0.7917   -2.0862    4.3586 H         1 MOL         0.0362
     14 H5          3.1135   -2.0356    4.9509 H         1 MOL         0.0654
     15 H6          2.1563   -0.7338    5.7484 H         1 MOL         0.0654
     16 H7          3.9031   -0.5606    5.5286 H         1 MOL         0.0654
@<TRIPOS>BOND
     1    1    2 ar
     2    1    3 ar
     3    2    5 ar
     4    3    8 ar
     5    4    5 ar
     6    4    8 ar
     7    5    6 1
     8    6    7 1
     9    6    9 2
    10    1   10 1
    11    2   11 1
    12    3   12 1
    13    4   13 1
    14    7   14 1
    15    7   15 1
    16    7   16 1
