@<TRIPOS>MOLECULE
anthracene
   24    26     0     0     0
SMALL
USER_CHARGES

@<TRIPOS>ATOM
      1 C1          1.1790    1.7785   -0.2719 C.ar      1 MOL        -0.1266
      2 C2         -0.0144    1.0672   -0.2005 C.ar      1 MOL        -0.1266
      3 C3         -2.5631    7.9206   -1.6201 C.ar      1 MOL        -0.1266
      4 C4         -3.7565    7.2092   -1.5486 C.ar      1 MOL        -0.1266
      5 C5          1.1594    3.1494   -0.5302 C.ar      1 MOL        -0.1177
      6 C6         -1.2305    1.7248   -0.3872 C.ar      1 MOL        -0.1177
      7 C7         -1.3470    7.2631   -1.4331 C.ar      1 MOL        -0.1177
      8 C8         -3.7368    5.8385   -1.2900 C.ar      1 MOL        -0.1177
      9 C9         -0.0931    5.2067   -0.9817 C.ar      1 MOL        -0.1066
     10 C10        -2.4843    3.7813   -0.8385 C.ar      1 MOL        -0.1066
     11 C11        -0.0565    3.8268   -0.7206 C.ar      1 MOL        -0.0336
     12 C12        -1.2679    3.1047   -0.6481 C.ar      1 MOL        -0.0336
     13 C13        -1.3095    5.8834   -1.1720 C.ar      1 MOL        -0.0336
     14 C14        -2.5209    5.1612   -1.0994 C.ar      1 MOL        -0.0336
     15 H1          2.1262    1.2670   -0.1270 H         1 MOL         0.1322
     16 H2          0.0003   -0.0002    0.0003 H         1 MOL         0.1322
     17 H3         -2.5776    8.9879   -1.8210 H         1 MOL         0.1322
     18 H4         -4.7037    7.7203   -1.6944 H         1 MOL         0.1322
     19 H5          2.1046    3.6858   -0.5820 H         1 MOL         0.1320
     20 H6         -2.1514    1.1485   -0.3273 H         1 MOL         0.1320
     21 H7         -0.4258    7.8393   -1.4928 H         1 MOL         0.1320
     22 H8         -4.6821    5.3022   -1.2388 H         1 MOL         0.1320
     23 H9          0.8423    5.7640   -1.0381 H         1 MOL         0.1341
     24 H10        -3.4194    3.2239   -0.7825 H         1 MOL         0.1341
@<TRIPOS>BOND
     1    1    2 ar
     2    1    5 ar
     3    2    6 ar
     4    3    4 ar
     5    3    7 ar
     6    4    8 ar
     7    5   11 ar
     8    6   12 ar
     9    7   13 ar
    10    8   14 ar
    11    9   11 ar
    12    9   13 ar
    13   10   12 ar
    14   10   14 ar
    15   11   12 ar
    16   13   14 ar
    17    1   15 1
    18    2   16 1
    19    3   17 1
    20    4   18 1
    21    5   19 1
    22    6   20 1
    23    7   21 1
    24    8   22 1
    25    9   23 1
    26   10   24 1
