@<TRIPOS>MOLECULE
1_methyl_pyrrole
   13    13     0     0     0
SMALL
USER_CHARGES

@<TRIPOS>ATOM
      1 C1          1.4336    0.4029    1.6736 C.2       1 MOL        -0.1965
      2 C2          0.2535   -0.0702    1.0484 C.2       1 MOL        -0.1965
      3 C3          1.3373    0.1029    3.0144 C.2       1 MOL        -0.1660
      4 C4         -0.5282   -0.6446    2.0264 C.2       1 MOL        -0.1660
      5 C5         -0.3421   -1.0130    4.4922 C.3       1 MOL         0.0285
      6 N1          0.1404   -0.5332    3.2174 N.pl3     1 MOL        -0.0696
      7 H1          2.2635    0.9073    1.1988 H         1 MOL         0.1497
      8 H2          0.0006   -0.0009   -0.0004 H         1 MOL         0.1497
      9 H3          2.0171    0.2903    3.8349 H         1 MOL         0.1617
     10 H4         -1.4986   -1.1198    1.9721 H         1 MOL         0.1617
     11 H5          0.4439   -0.8487    5.2339 H         1 MOL         0.0477
     12 H6         -1.2482   -0.4661    4.7678 H         1 MOL         0.0477
     13 H7         -0.5771   -2.0780    4.4121 H         1 MOL         0.0477
@<TRIPOS>BOND
     1    1    2 1
     2    1    3 2
     3    2    4 2
     4    3    6 1
     5    4    6 1
     6    5    6 1
     7    1    7 1
     8    2    8 1
     9    3    9 1
    10    4   10 1
    11    5   11 1
    12    5   12 1
    13    5   13 1
