@<TRIPOS>MOLECULE
acetophenone
   17    17     0     0     0
SMALL
USER_CHARGES

@<TRIPOS>ATOM
      1 C1          1.8846   -1.0376   -0.1090 C.ar      1 MOL        -0.1010
      2 C2          0.8176   -0.4410    0.5626 C.ar      1 MOL        -0.1453
      3 C3          2.9348   -1.6038    0.6137 C.ar      1 MOL        -0.1453
      4 C4          0.8008   -0.4105    1.9570 C.ar      1 MOL        -0.0821
      5 C5          2.9180   -1.5734    2.0082 C.ar      1 MOL        -0.0821
      6 C6          1.8509   -0.9767    2.6799 C.ar      1 MOL        -0.1766
      7 C7          1.8333   -0.9446    4.1336 C.2       1 MOL         0.5723
      8 C8          0.6701   -0.2934    4.8742 C.3       1 MOL        -0.1938
      9 O1          2.7573   -1.4429    4.8071 O.2       1 MOL        -0.5348
     10 H1          1.8975   -1.0613   -1.1948 H         1 MOL         0.1347
     11 H2          0.0001    0.0000   -0.0000 H         1 MOL         0.1366
     12 H3          3.7651   -2.0690    0.0906 H         1 MOL         0.1366
     13 H4         -0.0358    0.0574    2.4697 H         1 MOL         0.1451
     14 H5          3.7417   -2.0179    2.5610 H         1 MOL         0.1451
     15 H6         -0.2577   -0.8227    4.6424 H         1 MOL         0.0636
     16 H7          0.5996    0.7616    4.5971 H         1 MOL         0.0636
     17 H8          0.8298   -0.3477    5.9557 H         1 MOL         0.0636
@<TRIPOS>BOND
     1    1    2 ar
     2    1    3 ar
     3    2    4 ar
     4    3    5 ar
     5    4    6 ar
     6    5    6 ar
     7    6    7 1
     8    7    8 1
     9    7    9 2
    10    1   10 1
    11    2   11 1
    12    3   12 1
    13    4   13 1
    14    5   14 1
    15    8   15 1
    16    8   16 1
    17    8   17 1
