@<TRIPOS>MOLECULE
4_formylpyridine
   13    13     0     0     0
SMALL
USER_CHARGES

@<TRIPOS>ATOM
      1 C1          0.1834   -0.3460    1.0107 C.ar      1 MOL        -0.1983
      2 C2          1.5263   -0.4068    3.0052 C.ar      1 MOL        -0.1983
      3 C3         -0.7036   -1.1995    1.6468 C.ar      1 MOL         0.3838
      4 C4          0.5791   -1.2576    3.5520 C.ar      1 MOL         0.3838
      5 C5          1.3172    0.0532    1.7098 C.ar      1 MOL        -0.1581
      6 C6          2.2804    0.9477    1.0886 C.2       1 MOL         0.5689
      7 N1         -0.5344   -1.6671    2.9040 N.ar      1 MOL        -0.6434
      8 O1          3.3039    1.3369    1.6583 O.2       1 MOL        -0.5111
      9 H1         -0.0088   -0.0059   -0.0015 H         1 MOL         0.1554
     10 H2          2.4007   -0.1147    3.5771 H         1 MOL         0.1554
     11 H3         -1.6027   -1.5409    1.1446 H         1 MOL         0.0283
     12 H4          0.6958   -1.6451    4.5588 H         1 MOL         0.0283
     13 H5          2.0685    1.2875    0.0512 H         1 MOL         0.0051
@<TRIPOS>BOND
     1    1    3 ar
     2    1    5 ar
     3    2    4 ar
     4    2    5 ar
     5    3    7 ar
     6    4    7 ar
     7    5    6 1
     8    6    8 2
     9    1    9 1
    10    2   10 1
    11    3   11 1
    12    4   12 1
    13    6   13 1
