@<TRIPOS>MOLECULE
CUP08008_AM1BCC_v1_0
   26    25     0     0     0
SMALL
USER_CHARGES

@<TRIPOS>ATOM
      1 C1          2.4775   -0.7668   -0.5653 C.2       1 MOL         0.3967
      2 C2         -0.0238   -1.8313   -2.6917 C.2       1 MOL         0.7549
      3 C3          0.6943    0.4413    0.7492 C.3       1 MOL        -0.0859
      4 C4          2.0353    1.6619   -1.0365 C.3       1 MOL        -0.0859
      5 C5         -2.0371   -1.8761   -4.0901 C.3       1 MOL         0.0864
      6 C6          2.9301    2.6733    1.7996 C.3       1 MOL        -0.0348
      7 C7          2.0464    0.5771    0.0429 C.3       1 MOL         0.0012
      8 N1          1.8502   -1.5177   -1.4243 N.2       1 MOL        -0.4460
      9 N2         -1.2173   -1.2737   -3.0748 N.am      1 MOL        -0.5573
     10 O1          0.3855   -2.9130   -3.0929 O.2       1 MOL        -0.5292
     11 O2          0.6154   -0.9847   -1.8184 O.3       1 MOL        -0.1923
     12 S1          3.3465    0.9722    1.3355 S.3       1 MOL        -0.3025
     13 H1          3.4586   -1.1630   -0.2494 H         1 MOL         0.0294
     14 H2          0.4117    1.3503    1.2890 H         1 MOL         0.0491
     15 H3         -0.1176    0.2503    0.0406 H         1 MOL         0.0491
     16 H4          0.6951   -0.3938    1.4597 H         1 MOL         0.0491
     17 H5          1.7069    2.6304   -0.6454 H         1 MOL         0.0491
     18 H6          1.3468    1.4177   -1.8517 H         1 MOL         0.0491
     19 H7          3.0250    1.7868   -1.4914 H         1 MOL         0.0491
     20 H8         -1.6205   -1.6267   -5.0696 H         1 MOL         0.0482
     21 H9         -3.0487   -1.4726   -4.0054 H         1 MOL         0.0482
     22 H10        -2.0573   -2.9626   -3.9699 H         1 MOL         0.0482
     23 H11         3.5688    2.9683    2.6373 H         1 MOL         0.0645
     24 H12         1.8918    2.7617    2.1245 H         1 MOL         0.0645
     25 H13         3.1278    3.3621    0.9749 H         1 MOL         0.0645
     26 H14        -1.3800   -0.3190   -2.7915 H         1 MOL         0.3330
@<TRIPOS>BOND
     1    1    7 1
     2    1    8 2
     3    2    9 am
     4    2   10 2
     5    2   11 1
     6    3    7 1
     7    4    7 1
     8    5    9 1
     9    6   12 1
    10    7   12 1
    11    8   11 1
    12    1   13 1
    13    3   14 1
    14    3   15 1
    15    3   16 1
    16    4   17 1
    17    4   18 1
    18    4   19 1
    19    5   20 1
    20    5   21 1
    21    5   22 1
    22    6   23 1
    23    6   24 1
    24    6   25 1
    25    9   26 1
