@<TRIPOS>MOLECULE
2_methylpropan_1_ol
   15    14     0     0     0
SMALL
USER_CHARGES

@<TRIPOS>ATOM
      1 C1          0.9983   -0.3578   -0.2742 C.3       1 MOL        -0.0862
      2 C2          1.1578    1.1798   -2.2511 C.3       1 MOL        -0.0862
      3 C3          1.9991    1.9493   -0.0132 C.3       1 MOL         0.1366
      4 C4          1.8182    0.7470   -0.9439 C.3       1 MOL        -0.0656
      5 O1          2.6930    1.5517    1.1621 O.3       1 MOL        -0.6021
      6 H1          0.8775   -1.2129   -0.9479 H         1 MOL         0.0361
      7 H2          0.0000   -0.0000    0.0000 H         1 MOL         0.0361
      8 H3          1.4902   -0.7202    0.6344 H         1 MOL         0.0361
      9 H4          1.0535    0.3304   -2.9344 H         1 MOL         0.0361
     10 H5          1.7593    1.9426   -2.7566 H         1 MOL         0.0361
     11 H6          0.1602    1.5965   -2.0744 H         1 MOL         0.0361
     12 H7          2.5871    2.7313   -0.5051 H         1 MOL         0.0191
     13 H8          1.0318    2.3718    0.2794 H         1 MOL         0.0191
     14 H9          2.8075    0.3294   -1.1709 H         1 MOL         0.0504
     15 H10         3.4100    2.1927    1.2941 H         1 MOL         0.3983
@<TRIPOS>BOND
     1    1    4 1
     2    2    4 1
     3    3    4 1
     4    3    5 1
     5    1    6 1
     6    1    7 1
     7    1    8 1
     8    2    9 1
     9    2   10 1
    10    2   11 1
    11    3   12 1
    12    3   13 1
    13    4   14 1
    14    5   15 1
