@<TRIPOS>MOLECULE
1_methyl_imidazole
   12    12     0     0     0
SMALL
USER_CHARGES

@<TRIPOS>ATOM
      1 C1          2.0280   -0.7312   -0.6604 C.2       1 MOL         0.2902
      2 C2          0.6793   -0.7426   -0.3926 C.2       1 MOL        -0.2583
      3 C3          1.3580   -2.6792   -1.1960 C.2       1 MOL         0.3845
      4 C4         -1.0811   -2.5087   -0.6452 C.3       1 MOL         0.0285
      5 N1          2.4441   -1.9395   -1.1608 N.2       1 MOL        -0.6672
      6 N2          0.2641   -1.9971   -0.7406 N.pl3     1 MOL        -0.2087
      7 H1          2.7201    0.0860   -0.5187 H         1 MOL         0.0417
      8 H2          0.0049    0.0050    0.0010 H         1 MOL         0.1753
      9 H3          1.3020   -3.7038   -1.5375 H         1 MOL         0.0591
     10 H4         -1.1161   -3.2115    0.1914 H         1 MOL         0.0517
     11 H5         -1.7748   -1.6800   -0.4775 H         1 MOL         0.0517
     12 H6         -1.3436   -3.0119   -1.5799 H         1 MOL         0.0517
@<TRIPOS>BOND
     1    1    2 2
     2    1    5 1
     3    2    6 1
     4    3    5 2
     5    3    6 1
     6    4    6 1
     7    1    7 1
     8    2    8 1
     9    3    9 1
    10    4   10 1
    11    4   11 1
    12    4   12 1
