@<TRIPOS>MOLECULE
3_ethylphenol
   19    19     0     0     0
SMALL
USER_CHARGES

@<TRIPOS>ATOM
      1 C1          0.8324   -0.3948    0.5751 C.ar      1 MOL        -0.0900
      2 C2          1.8991   -1.0135   -0.0768 C.ar      1 MOL        -0.1634
      3 C3          0.8349   -0.2829    1.9655 C.ar      1 MOL        -0.2168
      4 C4          2.9708   -1.4085    2.0522 C.ar      1 MOL        -0.1556
      5 C5          2.9683   -1.5204    0.6618 C.ar      1 MOL        -0.0337
      6 C6          1.9042   -0.7896    2.7040 C.ar      1 MOL         0.1255
      7 C7          5.2123   -1.1949   -0.4081 C.3       1 MOL        -0.0866
      8 C8          4.1088   -2.1816   -0.0352 C.3       1 MOL        -0.0482
      9 O1          1.9063   -0.6804    4.0607 O.3       1 MOL        -0.5007
     10 H1         -0.0005   -0.0006    0.0002 H         1 MOL         0.1317
     11 H2          1.8886   -1.0964   -1.1604 H         1 MOL         0.1333
     12 H3          0.0010    0.1999    2.4675 H         1 MOL         0.1324
     13 H4          3.8030   -1.8026    2.6305 H         1 MOL         0.1497
     14 H5          4.8327   -0.4157   -1.0777 H         1 MOL         0.0363
     15 H6          6.0350   -1.7075   -0.9164 H         1 MOL         0.0363
     16 H7          5.6176   -0.7038    0.4831 H         1 MOL         0.0363
     17 H8          4.5359   -2.9772    0.5963 H         1 MOL         0.0475
     18 H9          3.7583   -2.6909   -0.9474 H         1 MOL         0.0475
     19 H10         1.2264   -0.0343    4.3256 H         1 MOL         0.4187
@<TRIPOS>BOND
     1    1    2 ar
     2    1    3 ar
     3    2    5 ar
     4    3    6 ar
     5    4    5 ar
     6    4    6 ar
     7    5    8 1
     8    6    9 1
     9    7    8 1
    10    1   10 1
    11    2   11 1
    12    3   12 1
    13    4   13 1
    14    7   14 1
    15    7   15 1
    16    7   16 1
    17    8   17 1
    18    8   18 1
    19    9   19 1
