@<TRIPOS>MOLECULE
iodobenzene
   12    12     0     0     0
SMALL
USER_CHARGES

@<TRIPOS>ATOM
      1 C1          1.8846   -1.0376   -0.1090 C.ar      1 MOL        -0.1122
      2 C2          0.8176   -0.4410    0.5626 C.ar      1 MOL        -0.1338
      3 C3          2.9348   -1.6038    0.6137 C.ar      1 MOL        -0.1338
      4 C4          0.8008   -0.4105    1.9570 C.ar      1 MOL        -0.0964
      5 C5          2.9180   -1.5734    2.0082 C.ar      1 MOL        -0.0964
      6 C6          1.8509   -0.9767    2.6799 C.ar      1 MOL         0.0229
      7 I1          1.8259   -0.9308    4.7566 I         1 MOL        -0.1460
      8 H1          1.8979   -1.0610   -1.1947 H         1 MOL         0.1351
      9 H2          0.0001   -0.0000   -0.0003 H         1 MOL         0.1368
     10 H3          3.7657   -2.0679    0.0905 H         1 MOL         0.1368
     11 H4         -0.0397    0.0595    2.4611 H         1 MOL         0.1436
     12 H5          3.7461   -2.0198    2.5525 H         1 MOL         0.1436
@<TRIPOS>BOND
     1    1    2 ar
     2    1    3 ar
     3    2    4 ar
     4    3    5 ar
     5    4    6 ar
     6    5    6 ar
     7    6    7 1
     8    1    8 1
     9    2    9 1
    10    3   10 1
    11    4   11 1
    12    5   12 1
