@<TRIPOS>MOLECULE
CUP08013_AM1BCC_v1_0
   27    27     0     0     0
SMALL
USER_CHARGES

@<TRIPOS>ATOM
      1 C1         -6.3828   -4.2597   -5.5711 C.2       1 MOL        -0.2519
      2 C2         -5.3319   -5.0928   -5.4924 C.2       1 MOL         0.1363
      3 C3         -6.3447   -2.9817   -4.7810 C.2       1 MOL         0.7329
      4 C4         -4.1546   -3.6354   -3.9389 C.2       1 MOL         0.8091
      5 C5         -5.1875   -6.4068   -6.2114 C.3       1 MOL        -0.0894
      6 C6         -6.2982   -2.5678   -1.1471 C.3       1 MOL        -0.0915
      7 C7         -5.0452   -0.2787   -4.0479 C.3       1 MOL        -0.1094
      8 C8         -6.2576   -1.3962   -2.1193 C.3       1 MOL        -0.0955
      9 C9         -5.1353   -1.5314   -3.1687 C.3       1 MOL         0.1119
     10 N1         -4.2639   -4.7629   -4.6994 N.am      1 MOL        -0.4694
     11 N2         -5.2276   -2.7621   -3.9792 N.am      1 MOL        -0.4780
     12 O1         -7.2791   -2.1842   -4.8650 O.2       1 MOL        -0.5910
     13 O2         -3.1315   -3.4690   -3.2781 O.2       1 MOL        -0.6388
     14 Br1        -7.9090   -4.5740   -6.6099 Br        1 MOL        -0.0137
     15 H1         -4.3004   -6.3876   -6.8543 H         1 MOL         0.0738
     16 H2         -6.0399   -6.6621   -6.8447 H         1 MOL         0.0738
     17 H3         -5.0664   -7.2199   -5.4869 H         1 MOL         0.0738
     18 H4         -5.3343   -2.6943   -0.6445 H         1 MOL         0.0347
     19 H5         -7.0594   -2.3931   -0.3800 H         1 MOL         0.0347
     20 H6         -6.5474   -3.5029   -1.6576 H         1 MOL         0.0347
     21 H7         -5.9743   -0.0828   -4.5908 H         1 MOL         0.0502
     22 H8         -4.8293    0.6042   -3.4366 H         1 MOL         0.0502
     23 H9         -4.2422   -0.3816   -4.7858 H         1 MOL         0.0502
     24 H10        -7.2392   -1.2912   -2.5920 H         1 MOL         0.0610
     25 H11        -6.0956   -0.4765   -1.5431 H         1 MOL         0.0610
     26 H12        -4.1957   -1.5596   -2.6031 H         1 MOL         0.0868
     27 H13        -3.4622   -5.3822   -4.6391 H         1 MOL         0.3539
@<TRIPOS>BOND
     1    1    2 2
     2    1    3 1
     3    1   14 1
     4    2    5 1
     5    2   10 1
     6    3   11 am
     7    3   12 2
     8    4   10 am
     9    4   11 am
    10    4   13 2
    11    6    8 1
    12    7    9 1
    13    8    9 1
    14    9   11 1
    15    5   15 1
    16    5   16 1
    17    5   17 1
    18    6   18 1
    19    6   19 1
    20    6   20 1
    21    7   21 1
    22    7   22 1
    23    7   23 1
    24    8   24 1
    25    8   25 1
    26    9   26 1
    27   10   27 1
