@<TRIPOS>MOLECULE
4_bromotoluene
   15    15     0     0     0
SMALL
USER_CHARGES

@<TRIPOS>ATOM
      1 C1          0.8178   -0.4385    0.5644 C.ar      1 MOL        -0.1323
      2 C2          2.9371   -1.5972    0.6197 C.ar      1 MOL        -0.1323
      3 C3          0.7994   -0.4058    1.9588 C.ar      1 MOL        -0.0994
      4 C4          2.9185   -1.5646    2.0141 C.ar      1 MOL        -0.0994
      5 C5          1.8867   -1.0341   -0.1051 C.ar      1 MOL        -0.0527
      6 C6          1.8497   -0.9689    2.6836 C.ar      1 MOL        -0.0321
      7 C7          1.9078   -1.0696   -1.5956 C.3       1 MOL        -0.0644
      8 Br1         1.8251   -0.9242    4.5729 Br        1 MOL        -0.0921
      9 H1         -0.0047    0.0033    0.0082 H         1 MOL         0.1370
     10 H2          3.7740   -2.0640    0.1072 H         1 MOL         0.1370
     11 H3         -0.0409    0.0616    2.4658 H         1 MOL         0.1454
     12 H4          3.7452   -2.0071    2.5639 H         1 MOL         0.1454
     13 H5          2.1041   -2.0887   -1.9510 H         1 MOL         0.0467
     14 H6          0.9512   -0.7330   -2.0161 H         1 MOL         0.0467
     15 H7          2.6831   -0.4052   -1.9993 H         1 MOL         0.0467
@<TRIPOS>BOND
     1    1    3 ar
     2    1    5 ar
     3    2    4 ar
     4    2    5 ar
     5    3    6 ar
     6    4    6 ar
     7    5    7 1
     8    6    8 1
     9    1    9 1
    10    2   10 1
    11    3   11 1
    12    4   12 1
    13    7   13 1
    14    7   14 1
    15    7   15 1
