@<TRIPOS>MOLECULE
methyl_p_methoxybenzoate
   22    22     0     0     0
SMALL
USER_CHARGES

@<TRIPOS>ATOM
      1 C1          0.8178   -0.4385    0.5644 C.ar      1 MOL        -0.0367
      2 C2          2.9371   -1.5972    0.6197 C.ar      1 MOL        -0.0367
      3 C3          0.7994   -0.4058    1.9588 C.ar      1 MOL        -0.2007
      4 C4          2.9185   -1.5646    2.0141 C.ar      1 MOL        -0.2007
      5 C5          1.8867   -1.0341   -0.1051 C.ar      1 MOL        -0.1735
      6 C6          1.8497   -0.9689    2.6836 C.ar      1 MOL         0.1596
      7 C7          1.9049   -1.0684   -1.5591 C.2       1 MOL         0.6499
      8 C8          0.7071   -0.3159    4.6645 C.3       1 MOL         0.1149
      9 C9          3.1624   -1.7846   -3.4557 C.3       1 MOL         0.1322
     10 O1          1.0178   -0.5954   -2.2817 O.2       1 MOL        -0.5487
     11 O2          1.8310   -0.9388    4.0441 O.3       1 MOL        -0.3236
     12 O3          3.0281   -1.6890   -2.0336 O.3       1 MOL        -0.4430
     13 H1         -0.0058    0.0036    0.0093 H         1 MOL         0.1576
     14 H2          3.7742   -2.0651    0.1078 H         1 MOL         0.1576
     15 H3         -0.0368    0.0583    2.4748 H         1 MOL         0.1501
     16 H4          3.7400   -2.0045    2.5730 H         1 MOL         0.1501
     17 H5         -0.1110   -1.0358    4.7448 H         1 MOL         0.0475
     18 H6          0.3921    0.5450    4.0695 H         1 MOL         0.0475
     19 H7          0.9936    0.0197    5.6640 H         1 MOL         0.0475
     20 H8          4.0563   -2.3638   -3.6998 H         1 MOL         0.0497
     21 H9          3.2368   -0.7818   -3.8838 H         1 MOL         0.0497
     22 H10         2.2824   -2.2881   -3.8628 H         1 MOL         0.0497
@<TRIPOS>BOND
     1    1    3 ar
     2    1    5 ar
     3    2    4 ar
     4    2    5 ar
     5    3    6 ar
     6    4    6 ar
     7    5    7 1
     8    6   11 1
     9    7   10 2
    10    7   12 1
    11    8   11 1
    12    9   12 1
    13    1   13 1
    14    2   14 1
    15    3   15 1
    16    4   16 1
    17    8   17 1
    18    8   18 1
    19    8   19 1
    20    9   20 1
    21    9   21 1
    22    9   22 1
