@<TRIPOS>MOLECULE
26_dimethylpyridine
   17    17     0     0     0
SMALL
USER_CHARGES

@<TRIPOS>ATOM
      1 C1          1.2858   -0.0601    1.7333 C.ar      1 MOL        -0.0866
      2 C2          0.1842   -0.4388    0.9739 C.ar      1 MOL        -0.2575
      3 C3          1.4967   -0.6399    2.9793 C.ar      1 MOL        -0.2575
      4 C4         -0.6697   -1.3939    1.5014 C.ar      1 MOL         0.4180
      5 C5          0.5838   -1.5858    3.4172 C.ar      1 MOL         0.4180
      6 C6         -1.8619   -1.8242    0.7136 C.3       1 MOL        -0.1470
      7 C7          0.7787   -2.2290    4.7496 C.3       1 MOL        -0.1470
      8 N1         -0.4976   -1.9792    2.7078 N.ar      1 MOL        -0.6703
      9 H1          1.9786    0.6854    1.3546 H         1 MOL         0.1356
     10 H2          0.0088    0.0056    0.0001 H         1 MOL         0.1407
     11 H3          2.3522   -0.3533    3.5816 H         1 MOL         0.1407
     12 H4         -2.2340   -2.7879    1.0815 H         1 MOL         0.0522
     13 H5         -2.6723   -1.0876    0.7844 H         1 MOL         0.0522
     14 H6         -1.6183   -1.9280   -0.3514 H         1 MOL         0.0522
     15 H7          1.5650   -1.7109    5.3115 H         1 MOL         0.0522
     16 H8         -0.1454   -2.2060    5.3411 H         1 MOL         0.0522
     17 H9          1.0628   -3.2839    4.6440 H         1 MOL         0.0522
@<TRIPOS>BOND
     1    1    2 ar
     2    1    3 ar
     3    2    4 ar
     4    3    5 ar
     5    4    6 1
     6    4    8 ar
     7    5    7 1
     8    5    8 ar
     9    1    9 1
    10    2   10 1
    11    3   11 1
    12    6   12 1
    13    6   13 1
    14    6   14 1
    15    7   15 1
    16    7   16 1
    17    7   17 1
