@<TRIPOS>MOLECULE
1_nitrobutane
   16    15     0     0     0
SMALL
USER_CHARGES

@<TRIPOS>ATOM
      1 C1          1.0478    0.0902   -0.1321 C.3       1 MOL        -0.0935
      2 C2          1.5528    1.5129    0.0476 C.3       1 MOL        -0.0814
      3 C3          0.8695    2.4770   -0.9214 C.3       1 MOL        -0.0898
      4 C4          1.3514    3.9009   -0.7035 C.3       1 MOL        -0.0745
      5 N1          0.6059    4.7774   -1.6222 N.pl3     1 MOL         0.2281
      6 O1         -0.4514    5.2847   -1.2084 O.3       1 MOL        -0.2112
      7 O2          1.0897    4.9709   -2.7514 O.2       1 MOL        -0.2112
      8 H1          1.5498   -0.5818    0.5710 H         1 MOL         0.0380
      9 H2         -0.0297    0.0303    0.0511 H         1 MOL         0.0380
     10 H3          1.2448   -0.2707   -1.1465 H         1 MOL         0.0380
     11 H4          1.3698    1.8314    1.0805 H         1 MOL         0.0489
     12 H5          2.6374    1.5323   -0.1108 H         1 MOL         0.0489
     13 H6          1.0720    2.1660   -1.9546 H         1 MOL         0.0672
     14 H7         -0.2189    2.4241   -0.7868 H         1 MOL         0.0672
     15 H8          1.1468    4.2638    0.3069 H         1 MOL         0.0936
     16 H9          2.4101    4.0276   -0.9434 H         1 MOL         0.0936
@<TRIPOS>BOND
     1    1    2 1
     2    2    3 1
     3    3    4 1
     4    4    5 1
     5    5    6 1
     6    5    7 2
     7    1    8 1
     8    1    9 1
     9    1   10 1
    10    2   11 1
    11    2   12 1
    12    3   13 1
    13    3   14 1
    14    4   15 1
    15    4   16 1
