@<TRIPOS>MOLECULE
acenaphthene
   22    24     0     0     0
SMALL
USER_CHARGES

@<TRIPOS>ATOM
      1 C1          5.8334   -0.4961    0.1922 C.ar      1 MOL        -0.1225
      2 C2          0.9669   -0.4611    0.1853 C.ar      1 MOL        -0.1225
      3 C3          4.6692    0.2396   -0.1041 C.ar      1 MOL        -0.1198
      4 C4          2.1424    0.2577   -0.1078 C.ar      1 MOL        -0.1198
      5 C5          5.7584   -1.7963    0.7191 C.ar      1 MOL        -0.1214
      6 C6          1.0218   -1.7622    0.7125 C.ar      1 MOL        -0.1214
      7 C7          3.4014   -0.3259    0.1269 C.ar      1 MOL        -0.0216
      8 C8          3.3913   -1.6201    0.6513 C.ar      1 MOL        -0.0632
      9 C9          4.5111   -2.3518    0.9463 C.ar      1 MOL        -0.0611
     10 C10         2.2603   -2.3356    0.9429 C.ar      1 MOL        -0.0611
     11 C11         4.1519   -3.7014    1.4931 C.3       1 MOL        -0.0404
     12 C12         2.5985   -3.6898    1.4920 C.3       1 MOL        -0.0404
     13 H1          6.8076   -0.0491    0.0095 H         1 MOL         0.1290
     14 H2         -0.0001   -0.0003   -0.0004 H         1 MOL         0.1290
     15 H3          4.7596    1.2435   -0.5108 H         1 MOL         0.1324
     16 H4          2.0677    1.2626   -0.5151 H         1 MOL         0.1324
     17 H5          6.6653   -2.3489    0.9420 H         1 MOL         0.1336
     18 H6          0.1064   -2.3017    0.9326 H         1 MOL         0.1336
     19 H7          4.5355   -4.5012    0.8511 H         1 MOL         0.0563
     20 H8          4.5385   -3.8321    2.5090 H         1 MOL         0.0563
     21 H9          2.2077   -3.8118    2.5076 H         1 MOL         0.0563
     22 H10         2.2047   -4.4857    0.8517 H         1 MOL         0.0563
@<TRIPOS>BOND
     1    1    3 ar
     2    1    5 ar
     3    2    4 ar
     4    2    6 ar
     5    3    7 ar
     6    4    7 ar
     7    5    9 ar
     8    6   10 ar
     9    7    8 ar
    10    8    9 ar
    11    8   10 ar
    12    9   11 1
    13   10   12 1
    14   11   12 1
    15    1   13 1
    16    2   14 1
    17    3   15 1
    18    4   16 1
    19    5   17 1
    20    6   18 1
    21   11   19 1
    22   11   20 1
    23   12   21 1
    24   12   22 1
