@<TRIPOS>MOLECULE
4_n_propylphenol
   22    22     0     0     0
SMALL
USER_CHARGES

@<TRIPOS>ATOM
      1 C1          0.8178   -0.4385    0.5644 C.ar      1 MOL        -0.0922
      2 C2          2.9371   -1.5972    0.6197 C.ar      1 MOL        -0.0922
      3 C3          0.7994   -0.4058    1.9588 C.ar      1 MOL        -0.1829
      4 C4          2.9185   -1.5646    2.0141 C.ar      1 MOL        -0.1829
      5 C5          1.8867   -1.0341   -0.1051 C.ar      1 MOL        -0.1011
      6 C6          1.8497   -0.9689    2.6836 C.ar      1 MOL         0.1199
      7 C7          1.2279   -2.3398   -3.6783 C.3       1 MOL        -0.0908
      8 C8          1.9072   -1.0684   -1.5957 C.3       1 MOL        -0.0403
      9 C9          1.2338   -2.3282   -2.1579 C.3       1 MOL        -0.0736
     10 O1          1.8304   -0.9375    4.0442 O.3       1 MOL        -0.5001
     11 H1         -0.0043    0.0035    0.0079 H         1 MOL         0.1337
     12 H2          3.7744   -2.0629    0.1065 H         1 MOL         0.1337
     13 H3         -0.0353    0.0603    2.4754 H         1 MOL         0.1408
     14 H4          3.7401   -2.0041    2.5732 H         1 MOL         0.1408
     15 H5          0.6853   -1.4757   -4.0750 H         1 MOL         0.0332
     16 H6          2.2482   -2.3170   -4.0745 H         1 MOL         0.0332
     17 H7          0.7397   -3.2467   -4.0487 H         1 MOL         0.0332
     18 H8          1.4088   -0.1729   -2.0034 H         1 MOL         0.0448
     19 H9          2.9456   -1.0124   -1.9633 H         1 MOL         0.0448
     20 H10         1.7537   -3.2228   -1.7940 H         1 MOL         0.0397
     21 H11         0.2009   -2.3924   -1.7945 H         1 MOL         0.0397
     22 H12         1.1745   -0.2775    4.3346 H         1 MOL         0.4186
@<TRIPOS>BOND
     1    1    3 ar
     2    1    5 ar
     3    2    4 ar
     4    2    5 ar
     5    3    6 ar
     6    4    6 ar
     7    5    8 1
     8    6   10 1
     9    7    9 1
    10    8    9 1
    11    1   11 1
    12    2   12 1
    13    3   13 1
    14    4   14 1
    15    7   15 1
    16    7   16 1
    17    7   17 1
    18    8   18 1
    19    8   19 1
    20    9   20 1
    21    9   21 1
    22   10   22 1
