@<TRIPOS>MOLECULE
25_dimethylpyridine
   17    17     0     0     0
SMALL
USER_CHARGES

@<TRIPOS>ATOM
      1 C1          1.5677   -0.0179    1.4844 C.ar      1 MOL        -0.0923
      2 C2          0.3026   -0.3176    0.9912 C.ar      1 MOL        -0.2470
      3 C3          0.9946   -1.1500    3.4961 C.ar      1 MOL         0.3990
      4 C4          1.9281   -0.4384    2.7598 C.ar      1 MOL        -0.1886
      5 C5         -0.5582   -1.0347    1.8066 C.ar      1 MOL         0.4062
      6 C6          3.2740   -0.1347    3.3154 C.3       1 MOL        -0.0550
      7 C7         -1.9243   -1.3737    1.3099 C.3       1 MOL        -0.1460
      8 N1         -0.2436   -1.4601    3.0507 N.ar      1 MOL        -0.6647
      9 H1          2.2657    0.5432    0.8692 H         1 MOL         0.1364
     10 H2          0.0087    0.0045   -0.0020 H         1 MOL         0.1405
     11 H3          1.2194   -1.5041    4.4976 H         1 MOL         0.0204
     12 H4          3.3037    0.8866    3.7184 H         1 MOL         0.0451
     13 H5          3.5431   -0.8314    4.1218 H         1 MOL         0.0451
     14 H6          4.0559   -0.2252    2.5480 H         1 MOL         0.0451
     15 H7         -2.3292   -2.2292    1.8634 H         1 MOL         0.0519
     16 H8         -2.6112   -0.5260    1.4266 H         1 MOL         0.0519
     17 H9         -1.9075   -1.6254    0.2419 H         1 MOL         0.0519
@<TRIPOS>BOND
     1    1    2 ar
     2    1    4 ar
     3    2    5 ar
     4    3    4 ar
     5    3    8 ar
     6    4    6 1
     7    5    7 1
     8    5    8 ar
     9    1    9 1
    10    2   10 1
    11    3   11 1
    12    6   12 1
    13    6   13 1
    14    6   14 1
    15    7   15 1
    16    7   16 1
    17    7   17 1
