@<TRIPOS>MOLECULE
ethyl_hexanoate
   26    25     0     0     0
SMALL
USER_CHARGES

@<TRIPOS>ATOM
      1 C1          1.6363   -0.8882    5.0705 C.2       1 MOL         0.6310
      2 C2         -0.0778    4.7906    2.7190 C.3       1 MOL        -0.0901
      3 C3          3.6410   -3.0216    7.2707 C.3       1 MOL        -0.1068
      4 C4          1.7849    0.6046    4.8759 C.3       1 MOL        -0.1259
      5 C5         -0.2159    3.2849    2.8782 C.3       1 MOL        -0.0770
      6 C6          0.7154    1.2021    3.9617 C.3       1 MOL        -0.0756
      7 C7          0.8868    2.7120    3.7688 C.3       1 MOL        -0.0794
      8 C8          2.5433   -2.7114    6.2756 C.3       1 MOL         0.1371
      9 O1          0.7896   -1.5884    4.5326 O.2       1 MOL        -0.5420
     10 O2          2.5780   -1.3151    5.9634 O.3       1 MOL        -0.4422
     11 H1         -0.1441    5.2953    3.6882 H         1 MOL         0.0331
     12 H2          0.8819    5.0503    2.2610 H         1 MOL         0.0331
     13 H3         -0.8758    5.1786    2.0784 H         1 MOL         0.0331
     14 H4          3.6422   -4.0835    7.5320 H         1 MOL         0.0468
     15 H5          4.6208   -2.7577    6.8594 H         1 MOL         0.0468
     16 H6          3.5106   -2.4331    8.1850 H         1 MOL         0.0468
     17 H7          2.7796    0.8162    4.4676 H         1 MOL         0.0759
     18 H8          1.7100    1.0684    5.8661 H         1 MOL         0.0759
     19 H9         -0.1776    2.8140    1.8890 H         1 MOL         0.0378
     20 H10        -1.1982    3.0574    3.3084 H         1 MOL         0.0378
     21 H11        -0.2680    1.0116    4.4088 H         1 MOL         0.0531
     22 H12         0.7254    0.6988    2.9874 H         1 MOL         0.0531
     23 H13         1.8637    2.9265    3.3202 H         1 MOL         0.0440
     24 H14         0.8647    3.2108    4.7455 H         1 MOL         0.0440
     25 H15         1.5633   -2.9540    6.6972 H         1 MOL         0.0549
     26 H16         2.6881   -3.2824    5.3537 H         1 MOL         0.0549
@<TRIPOS>BOND
     1    1    4 1
     2    1    9 2
     3    1   10 1
     4    2    5 1
     5    3    8 1
     6    4    6 1
     7    5    7 1
     8    6    7 1
     9    8   10 1
    10    2   11 1
    11    2   12 1
    12    2   13 1
    13    3   14 1
    14    3   15 1
    15    3   16 1
    16    4   17 1
    17    4   18 1
    18    5   19 1
    19    5   20 1
    20    6   21 1
    21    6   22 1
    22    7   23 1
    23    7   24 1
    24    8   25 1
    25    8   26 1
