@<TRIPOS>MOLECULE
CUP08044_AM1BCC_v1_0
   34    33     0     0     0
SMALL
USER_CHARGES

@<TRIPOS>ATOM
      1 C1         -0.8340   -1.4538    2.5987 C.2       1 MOL         0.6839
      2 C2         -5.2763    2.2909    2.7123 C.3       1 MOL        -0.0897
      3 C3         -0.3797   -4.2945    6.9828 C.3       1 MOL        -0.0951
      4 C4          0.4584   -0.1390   -0.0857 C.3       1 MOL        -0.1094
      5 C5         -3.7562    2.2754    2.6878 C.3       1 MOL        -0.0765
      6 C6         -0.8176   -2.9417    6.4404 C.3       1 MOL        -0.0712
      7 C7         -3.2176    0.9230    2.2232 C.3       1 MOL        -0.1019
      8 C8         -0.9424   -0.5609    0.3300 C.3       1 MOL         0.0928
      9 C9         -1.6877    0.9142    2.1975 C.3       1 MOL         0.0921
     10 C10        -0.6238   -2.8669    4.9279 C.3       1 MOL        -0.0116
     11 N1         -1.1584   -0.3849    1.7647 N.am      1 MOL        -0.4607
     12 O1         -0.3524   -2.5037    2.1860 O.2       1 MOL        -0.6080
     13 S1         -1.1572   -1.2418    4.3157 S.3       1 MOL        -0.2700
     14 H1         -5.6652    1.5313    3.3980 H         1 MOL         0.0340
     15 H2         -5.6406    3.2677    3.0457 H         1 MOL         0.0340
     16 H3         -5.6867    2.0973    1.7160 H         1 MOL         0.0340
     17 H4         -0.9619   -5.1047    6.5321 H         1 MOL         0.0369
     18 H5          0.6799   -4.4756    6.7762 H         1 MOL         0.0369
     19 H6         -0.5257   -4.3332    8.0669 H         1 MOL         0.0369
     20 H7          0.6368    0.9167    0.1427 H         1 MOL         0.0410
     21 H8          1.2193   -0.7266    0.4384 H         1 MOL         0.0410
     22 H9          0.5952   -0.2838   -1.1617 H         1 MOL         0.0410
     23 H10        -3.3990    3.0678    2.0200 H         1 MOL         0.0391
     24 H11        -3.3782    2.5016    3.6917 H         1 MOL         0.0391
     25 H12        -0.2351   -2.1581    6.9400 H         1 MOL         0.0501
     26 H13        -1.8719   -2.7842    6.6985 H         1 MOL         0.0501
     27 H14        -3.5886    0.1315    2.8849 H         1 MOL         0.0506
     28 H15        -3.6045    0.6966    1.2220 H         1 MOL         0.0506
     29 H16        -1.0950   -1.6126    0.0621 H         1 MOL         0.0584
     30 H17        -1.6934    0.0188   -0.2180 H         1 MOL         0.0584
     31 H18        -1.2881    1.1758    3.1818 H         1 MOL         0.0582
     32 H19        -1.3173    1.6823    1.5078 H         1 MOL         0.0582
     33 H20         0.4319   -3.0179    4.6785 H         1 MOL         0.0885
     34 H21        -1.2130   -3.6486    4.4364 H         1 MOL         0.0885
@<TRIPOS>BOND
     1    1   11 am
     2    1   12 2
     3    1   13 1
     4    2    5 1
     5    3    6 1
     6    4    8 1
     7    5    7 1
     8    6   10 1
     9    7    9 1
    10    8   11 1
    11    9   11 1
    12   10   13 1
    13    2   14 1
    14    2   15 1
    15    2   16 1
    16    3   17 1
    17    3   18 1
    18    3   19 1
    19    4   20 1
    20    4   21 1
    21    4   22 1
    22    5   23 1
    23    5   24 1
    24    6   25 1
    25    6   26 1
    26    7   27 1
    27    7   28 1
    28    8   29 1
    29    8   30 1
    30    9   31 1
    31    9   32 1
    32   10   33 1
    33   10   34 1
