@<TRIPOS>MOLECULE
4_hydroxybenzaldehyde
   15    15     0     0     0
SMALL
USER_CHARGES

@<TRIPOS>ATOM
      1 C1          0.8178   -0.4385    0.5644 C.ar      1 MOL        -0.0408
      2 C2          2.9371   -1.5972    0.6197 C.ar      1 MOL        -0.0408
      3 C3          0.7994   -0.4058    1.9588 C.ar      1 MOL        -0.2026
      4 C4          2.9185   -1.5646    2.0141 C.ar      1 MOL        -0.2026
      5 C5          1.8867   -1.0341   -0.1051 C.ar      1 MOL        -0.2348
      6 C6          1.8497   -0.9689    2.6836 C.ar      1 MOL         0.1572
      7 C7          1.9049   -1.0684   -1.5591 C.2       1 MOL         0.5770
      8 O1          2.8208   -1.5794   -2.2094 O.2       1 MOL        -0.5312
      9 O2          1.8310   -0.9388    4.0441 O.3       1 MOL        -0.4925
     10 H1         -0.0058    0.0036    0.0093 H         1 MOL         0.1471
     11 H2          3.7742   -2.0651    0.1078 H         1 MOL         0.1471
     12 H3         -0.0368    0.0583    2.4748 H         1 MOL         0.1479
     13 H4          3.7400   -2.0045    2.5730 H         1 MOL         0.1479
     14 H5          1.0453   -0.6072   -2.0922 H         1 MOL        -0.0037
     15 H6          1.1755   -0.2789    4.3355 H         1 MOL         0.4248
@<TRIPOS>BOND
     1    1    3 ar
     2    1    5 ar
     3    2    4 ar
     4    2    5 ar
     5    3    6 ar
     6    4    6 ar
     7    5    7 1
     8    6    9 1
     9    7    8 2
    10    1   10 1
    11    2   11 1
    12    3   12 1
    13    4   13 1
    14    7   14 1
    15    9   15 1
