@<TRIPOS>MOLECULE
nonanal
   28    27     0     0     0
SMALL
USER_CHARGES

@<TRIPOS>ATOM
      1 C1          0.4906   -9.7367   -2.7708 C.2       1 MOL         0.5603
      2 C2         -1.1900   -0.0012   -0.4312 C.3       1 MOL        -0.0897
      3 C3         -0.4461   -8.7156   -2.1680 C.3       1 MOL        -0.1982
      4 C4         -1.7146   -1.4252   -0.3268 C.3       1 MOL        -0.0780
      5 C5          0.0932   -7.2881   -2.1930 C.3       1 MOL        -0.0711
      6 C6         -0.7679   -2.4187   -1.0013 C.3       1 MOL        -0.0772
      7 C7         -0.8808   -6.2838   -1.5688 C.3       1 MOL        -0.0774
      8 C8         -1.2866   -3.8594   -0.9868 C.3       1 MOL        -0.0768
      9 C9         -0.3279   -4.8578   -1.6394 C.3       1 MOL        -0.0770
     10 O1          1.6172   -9.4949   -3.1899 O.2       1 MOL        -0.5226
     11 H1          0.0797  -10.7592   -2.8368 H         1 MOL        -0.0086
     12 H2         -1.0883    0.3043   -1.4775 H         1 MOL         0.0317
     13 H3         -1.8792    0.6933    0.0596 H         1 MOL         0.0317
     14 H4         -0.2119    0.0927    0.0514 H         1 MOL         0.0317
     15 H5         -0.6743   -9.0269   -1.1432 H         1 MOL         0.0680
     16 H6         -1.3749   -8.7636   -2.7473 H         1 MOL         0.0680
     17 H7         -2.7049   -1.4781   -0.7933 H         1 MOL         0.0375
     18 H8         -1.8382   -1.6752    0.7322 H         1 MOL         0.0375
     19 H9          0.2716   -7.0032   -3.2373 H         1 MOL         0.0458
     20 H10         1.0607   -7.2385   -1.6787 H         1 MOL         0.0458
     21 H11         0.2172   -2.3773   -0.5206 H         1 MOL         0.0389
     22 H12        -0.6211   -2.1195   -2.0467 H         1 MOL         0.0389
     23 H13        -1.0750   -6.5460   -0.5226 H         1 MOL         0.0414
     24 H14        -1.8414   -6.3306   -2.0961 H         1 MOL         0.0414
     25 H15        -2.2449   -3.8824   -1.5206 H         1 MOL         0.0388
     26 H16        -1.4937   -4.1651    0.0461 H         1 MOL         0.0388
     27 H17        -0.1638   -4.5791   -2.6872 H         1 MOL         0.0401
     28 H18         0.6456   -4.8270   -1.1375 H         1 MOL         0.0401
@<TRIPOS>BOND
     1    1    3 1
     2    1   10 2
     3    2    4 1
     4    3    5 1
     5    4    6 1
     6    5    7 1
     7    6    8 1
     8    7    9 1
     9    8    9 1
    10    1   11 1
    11    2   12 1
    12    2   13 1
    13    2   14 1
    14    3   15 1
    15    3   16 1
    16    4   17 1
    17    4   18 1
    18    5   19 1
    19    5   20 1
    20    6   21 1
    21    6   22 1
    22    7   23 1
    23    7   24 1
    24    8   25 1
    25    8   26 1
    26    9   27 1
    27    9   28 1
