@<TRIPOS>MOLECULE
N_methylpiperidine
   20    20     0     0     0
SMALL
USER_CHARGES

@<TRIPOS>ATOM
      1 C1          0.5014   -0.5710   -0.7892 C.3       1 MOL        -0.0734
      2 C2          0.8638   -1.9618   -0.2795 C.3       1 MOL        -0.0889
      3 C3         -0.3936   -0.6594   -2.0207 C.3       1 MOL        -0.0889
      4 C4          1.4279   -2.8358   -1.4029 C.3       1 MOL         0.1637
      5 C5          0.2139   -1.5780   -3.0842 C.3       1 MOL         0.1637
      6 C6         -0.6069   -3.7536   -2.3697 C.3       1 MOL         0.1538
      7 N1          0.5688   -2.9154   -2.5916 N.3       1 MOL        -0.7182
      8 H1         -0.0001   -0.0002   -0.0001 H         1 MOL         0.0388
      9 H2          1.4192   -0.0270   -1.0450 H         1 MOL         0.0388
     10 H3          1.5984   -1.8791    0.5293 H         1 MOL         0.0433
     11 H4         -0.0279   -2.4378    0.1472 H         1 MOL         0.0433
     12 H5         -1.3816   -1.0356   -1.7274 H         1 MOL         0.0433
     13 H6         -0.5456    0.3417   -2.4395 H         1 MOL         0.0433
     14 H7          2.4024   -2.4332   -1.7093 H         1 MOL         0.0370
     15 H8          1.6332   -3.8436   -1.0216 H         1 MOL         0.0370
     16 H9         -0.4723   -1.6636   -3.9356 H         1 MOL         0.0370
     17 H10         1.1210   -1.1064   -3.4839 H         1 MOL         0.0370
     18 H11        -1.0967   -3.9885   -3.3190 H         1 MOL         0.0298
     19 H12        -1.3226   -3.2370   -1.7241 H         1 MOL         0.0298
     20 H13        -0.3174   -4.6893   -1.8833 H         1 MOL         0.0298
@<TRIPOS>BOND
     1    1    2 1
     2    1    3 1
     3    2    4 1
     4    3    5 1
     5    4    7 1
     6    5    7 1
     7    6    7 1
     8    1    8 1
     9    1    9 1
    10    2   10 1
    11    2   11 1
    12    3   12 1
    13    3   13 1
    14    4   14 1
    15    4   15 1
    16    5   16 1
    17    5   17 1
    18    6   18 1
    19    6   19 1
    20    6   20 1
