@<TRIPOS>MOLECULE
14_dioxane
   14    14     0     0     0
SMALL
USER_CHARGES

@<TRIPOS>ATOM
      1 C1         -0.4849   -0.3534    0.9147 C.3       1 MOL         0.0941
      2 C2         -0.1538   -1.8156    1.1640 C.3       1 MOL         0.0941
      3 C3         -0.6065    0.0146    3.2349 C.3       1 MOL         0.0941
      4 C4         -0.2754   -1.4477    3.4842 C.3       1 MOL         0.0941
      5 O1         -0.0130    0.4406    2.0060 O.3       1 MOL        -0.4164
      6 O2         -0.7474   -2.2416    2.3929 O.3       1 MOL        -0.4164
      7 H1          0.0003   -0.0002   -0.0000 H         1 MOL         0.0571
      8 H2         -1.5657   -0.2031    0.8118 H         1 MOL         0.0571
      9 H3         -0.5487   -2.4416    0.3584 H         1 MOL         0.0571
     10 H4          0.9293   -1.9729    1.2233 H         1 MOL         0.0571
     11 H5         -1.6898    0.1714    3.1752 H         1 MOL         0.0571
     12 H6         -0.2123    0.6408    4.0406 H         1 MOL         0.0571
     13 H7          0.8057   -1.5977    3.5864 H         1 MOL         0.0571
     14 H8         -0.7597   -1.8010    4.3992 H         1 MOL         0.0571
@<TRIPOS>BOND
     1    1    2 1
     2    1    5 1
     3    2    6 1
     4    3    4 1
     5    3    5 1
     6    4    6 1
     7    1    7 1
     8    1    8 1
     9    2    9 1
    10    2   10 1
    11    3   11 1
    12    3   12 1
    13    4   13 1
    14    4   14 1
