@<TRIPOS>MOLECULE
cyclopentanol
   16    16     0     0     0
SMALL
USER_CHARGES

@<TRIPOS>ATOM
      1 C1         -1.1981   -0.6287   -1.7137 C.3       1 MOL        -0.0766
      2 C2         -0.3739    0.3943   -0.9495 C.3       1 MOL        -0.0766
      3 C3         -2.0363    0.2321   -2.6473 C.3       1 MOL        -0.0966
      4 C4         -1.3064    1.5889   -0.7512 C.3       1 MOL        -0.0966
      5 C5         -2.4247    1.4297   -1.7855 C.3       1 MOL         0.1345
      6 O1         -3.6622    1.1760   -1.1275 O.3       1 MOL        -0.5960
      7 H1         -0.5744   -1.3455   -2.2551 H         1 MOL         0.0426
      8 H2         -1.8450   -1.1855   -1.0256 H         1 MOL         0.0426
      9 H3          0.0009    0.0003   -0.0002 H         1 MOL         0.0426
     10 H4          0.4926    0.6983   -1.5495 H         1 MOL         0.0426
     11 H5         -1.4188    0.5620   -3.4912 H         1 MOL         0.0501
     12 H6         -2.8994   -0.3177   -3.0340 H         1 MOL         0.0501
     13 H7         -1.7033    1.6044    0.2701 H         1 MOL         0.0501
     14 H8         -0.7519    2.5204   -0.9088 H         1 MOL         0.0501
     15 H9         -2.5554    2.3334   -2.3876 H         1 MOL         0.0381
     16 H10        -4.0599    2.0408   -0.9375 H         1 MOL         0.3991
@<TRIPOS>BOND
     1    1    2 1
     2    1    3 1
     3    2    4 1
     4    3    5 1
     5    4    5 1
     6    5    6 1
     7    1    7 1
     8    1    8 1
     9    2    9 1
    10    2   10 1
    11    3   11 1
    12    3   12 1
    13    4   13 1
    14    4   14 1
    15    5   15 1
    16    6   16 1
