@<TRIPOS>MOLECULE
cyclohexanone
   17    17     0     0     0
SMALL
USER_CHARGES

@<TRIPOS>ATOM
      1 C1         -0.6952   -1.9195   -0.6358 C.2       1 MOL         0.5647
      2 C2         -0.2070   -0.5209   -0.9407 C.3       1 MOL        -0.1786
      3 C3         -0.8243   -2.8611   -1.8123 C.3       1 MOL        -0.1786
      4 C4          1.0522   -0.5658   -1.7953 C.3       1 MOL        -0.0711
      5 C5          0.4488   -2.8550   -2.6471 C.3       1 MOL        -0.0711
      6 C6          0.8647   -1.4377   -3.0351 C.3       1 MOL        -0.0801
      7 O1         -1.0683   -2.2409    0.4914 O.2       1 MOL        -0.5321
      8 H1         -1.0114    0.0136   -1.4577 H         1 MOL         0.0701
      9 H2          0.0001    0.0003   -0.0004 H         1 MOL         0.0701
     10 H3         -1.0215   -3.8728   -1.4425 H         1 MOL         0.0701
     11 H4         -1.6853   -2.5418   -2.4095 H         1 MOL         0.0701
     12 H5          1.3296    0.4506   -2.0960 H         1 MOL         0.0454
     13 H6          1.8835   -0.9633   -1.1996 H         1 MOL         0.0454
     14 H7          1.2612   -3.3247   -2.0783 H         1 MOL         0.0454
     15 H8          0.2995   -3.4573   -3.5505 H         1 MOL         0.0454
     16 H9          0.1048   -0.9937   -3.6899 H         1 MOL         0.0423
     17 H10         1.8003   -1.4724   -3.6045 H         1 MOL         0.0423
@<TRIPOS>BOND
     1    1    2 1
     2    1    3 1
     3    1    7 2
     4    2    4 1
     5    3    5 1
     6    4    6 1
     7    5    6 1
     8    2    8 1
     9    2    9 1
    10    3   10 1
    11    3   11 1
    12    4   12 1
    13    4   13 1
    14    5   14 1
    15    5   15 1
    16    6   16 1
    17    6   17 1
