@<TRIPOS>MOLECULE
CUP08028_AM1BCC_v1_0
   29    29     0     0     0
SMALL
USER_CHARGES

@<TRIPOS>ATOM
      1 C1         -1.4826   -1.1841    0.9197 C.ar      1 MOL        -0.0073
      2 C2         -2.8976   -3.0879    1.4603 C.ar      1 MOL         0.0212
      3 C3         -1.6391   -0.6631    2.2197 C.ar      1 MOL        -0.1060
      4 C4         -2.1058   -2.3837    0.5483 C.ar      1 MOL        -0.2265
      5 C5         -3.0619   -2.5771    2.7575 C.ar      1 MOL        -0.2885
      6 C6         -2.4384   -1.3723    3.1402 C.ar      1 MOL         0.2597
      7 C7          1.2105   -0.4456    3.4408 C.3       1 MOL        -0.0921
      8 C8         -1.4899    1.8071    1.7629 C.3       1 MOL        -0.0901
      9 C9          0.5896    0.5695    2.4887 C.3       1 MOL        -0.0748
     10 C10        -0.9476    0.6444    2.6049 C.3       1 MOL        -0.0309
     11 N1         -1.9233   -2.9055   -0.8140 N.pl3     1 MOL         0.3233
     12 N2         -3.8976   -3.3309    3.7006 N.pl3     1 MOL         0.3281
     13 O1         -1.2139   -2.2525   -1.5910 O.3       1 MOL        -0.1998
     14 O2         -2.4906   -3.9682   -1.1005 O.2       1 MOL        -0.1998
     15 O3         -4.4195   -4.3808    3.3041 O.3       1 MOL        -0.2067
     16 O4         -4.0317   -2.8676    4.8441 O.2       1 MOL        -0.2067
     17 O5         -2.5578   -0.8233    4.3908 O.3       1 MOL        -0.4806
     18 H1         -0.8682   -0.6450    0.1986 H         1 MOL         0.1852
     19 H2         -3.3785   -4.0197    1.1648 H         1 MOL         0.2068
     20 H3          0.9025   -1.4669    3.1975 H         1 MOL         0.0367
     21 H4          2.3024   -0.4028    3.3742 H         1 MOL         0.0367
     22 H5          0.9269   -0.2362    4.4771 H         1 MOL         0.0367
     23 H6         -1.2402    1.6984    0.7019 H         1 MOL         0.0414
     24 H7         -2.5804    1.8752    1.8455 H         1 MOL         0.0414
     25 H8         -1.0692    2.7588    2.1055 H         1 MOL         0.0414
     26 H9          1.0130    1.5551    2.7207 H         1 MOL         0.0452
     27 H10         0.8976    0.3344    1.4631 H         1 MOL         0.0452
     28 H11        -1.1753    0.8925    3.6484 H         1 MOL         0.0824
     29 H12        -3.1266   -1.3786    4.9653 H         1 MOL         0.4783
@<TRIPOS>BOND
     1    1    3 ar
     2    1    4 ar
     3    2    4 ar
     4    2    5 ar
     5    3    6 ar
     6    3   10 1
     7    4   11 1
     8    5    6 ar
     9    5   12 1
    10    6   17 1
    11    7    9 1
    12    8   10 1
    13    9   10 1
    14   11   13 1
    15   11   14 2
    16   12   15 1
    17   12   16 2
    18    1   18 1
    19    2   19 1
    20    7   20 1
    21    7   21 1
    22    7   22 1
    23    8   23 1
    24    8   24 1
    25    8   25 1
    26    9   26 1
    27    9   27 1
    28   10   28 1
    29   17   29 1
