@<TRIPOS>MOLECULE
styrene
   16    16     0     0     0
SMALL
USER_CHARGES

@<TRIPOS>ATOM
      1 C1         -0.1569    2.6195    5.2951 C.ar      1 MOL        -0.1273
      2 C2          0.5866    2.5885    4.1155 C.ar      1 MOL        -0.1311
      3 C3         -0.2467    1.4790    6.0933 C.ar      1 MOL        -0.1311
      4 C4          1.2404    1.4170    3.7338 C.ar      1 MOL        -0.1190
      5 C5          0.4072    0.3074    5.7118 C.ar      1 MOL        -0.1190
      6 C6          1.1509    0.2764    4.5320 C.ar      1 MOL        -0.0576
      7 C7          2.3431   -1.8813    4.9603 C.2       1 MOL        -0.2087
      8 C8          1.8330   -0.9450    4.1340 C.2       1 MOL        -0.1139
      9 H1         -0.6663    3.5316    5.5922 H         1 MOL         0.1310
     10 H2          0.6565    3.4766    3.4943 H         1 MOL         0.1311
     11 H3         -0.8256    1.5035    7.0118 H         1 MOL         0.1311
     12 H4          1.8162    1.4085    2.8114 H         1 MOL         0.1318
     13 H5          0.3283   -0.5733    6.3446 H         1 MOL         0.1318
     14 H6          2.8409   -2.7712    4.5929 H         1 MOL         0.1138
     15 H7          2.2566   -1.7713    6.0365 H         1 MOL         0.1138
     16 H8          1.9612   -1.1164    3.0596 H         1 MOL         0.1232
@<TRIPOS>BOND
     1    1    2 ar
     2    1    3 ar
     3    2    4 ar
     4    3    5 ar
     5    4    6 ar
     6    5    6 ar
     7    6    8 1
     8    7    8 2
     9    1    9 1
    10    2   10 1
    11    3   11 1
    12    4   12 1
    13    5   13 1
    14    7   14 1
    15    7   15 1
    16    8   16 1
