@<TRIPOS>MOLECULE
3_chloroaniline
   14    14     0     0     0
SMALL
USER_CHARGES

@<TRIPOS>ATOM
      1 C1          0.8324   -0.3948    0.5751 C.ar      1 MOL        -0.0835
      2 C2          1.8991   -1.0135   -0.0768 C.ar      1 MOL        -0.1950
      3 C3          0.8349   -0.2829    1.9655 C.ar      1 MOL        -0.1702
      4 C4          2.9708   -1.4085    2.0522 C.ar      1 MOL        -0.1939
      5 C5          2.9683   -1.5204    0.6618 C.ar      1 MOL         0.1573
      6 C6          1.9042   -0.7896    2.7040 C.ar      1 MOL         0.0582
      7 N1          4.0470   -2.1451    0.0018 N.pl3     1 MOL        -0.8283
      8 Cl1         1.9070   -0.6513    4.4195 Cl        1 MOL        -0.1003
      9 H1          0.0002    0.0004   -0.0002 H         1 MOL         0.1351
     10 H2          1.8869   -1.0955   -1.1606 H         1 MOL         0.1349
     11 H3         -0.0030    0.2019    2.4601 H         1 MOL         0.1469
     12 H4          3.8066   -1.8045    2.6251 H         1 MOL         0.1465
     13 H5          3.8595   -2.7662   -0.7590 H         1 MOL         0.3962
     14 H6          4.9720   -2.0313    0.3641 H         1 MOL         0.3962
@<TRIPOS>BOND
     1    1    2 ar
     2    1    3 ar
     3    2    5 ar
     4    3    6 ar
     5    4    5 ar
     6    4    6 ar
     7    5    7 1
     8    6    8 1
     9    1    9 1
    10    2   10 1
    11    3   11 1
    12    4   12 1
    13    7   13 1
    14    7   14 1
