@<TRIPOS>MOLECULE
tetrahydropyran
   16    16     0     0     0
SMALL
USER_CHARGES

@<TRIPOS>ATOM
      1 C1          0.8370    0.4782    0.5204 C.3       1 MOL        -0.0748
      2 C2          0.8028    0.1268    2.0040 C.3       1 MOL        -0.1104
      3 C3          0.7814    1.9898    0.3264 C.3       1 MOL        -0.1104
      4 C4          1.8519    0.9219    2.7705 C.3       1 MOL         0.1284
      5 C5          1.8310    2.6829    1.1856 C.3       1 MOL         0.1284
      6 O1          1.6794    2.3231    2.5588 O.3       1 MOL        -0.4160
      7 H1          1.7601    0.0875    0.0747 H         1 MOL         0.0407
      8 H2         -0.0003   -0.0000    0.0001 H         1 MOL         0.0407
      9 H3         -0.1913    0.3715    2.3980 H         1 MOL         0.0487
     10 H4          0.9598   -0.9477    2.1450 H         1 MOL         0.0487
     11 H5          0.9240    2.2439   -0.7291 H         1 MOL         0.0487
     12 H6         -0.2142    2.3434    0.6215 H         1 MOL         0.0487
     13 H7          1.7524    0.7318    3.8441 H         1 MOL         0.0446
     14 H8          2.8670    0.6309    2.4754 H         1 MOL         0.0446
     15 H9          2.8456    2.4337    0.8536 H         1 MOL         0.0446
     16 H10         1.7158    3.7689    1.1105 H         1 MOL         0.0446
@<TRIPOS>BOND
     1    1    2 1
     2    1    3 1
     3    2    4 1
     4    3    5 1
     5    4    6 1
     6    5    6 1
     7    1    7 1
     8    1    8 1
     9    2    9 1
    10    2   10 1
    11    3   11 1
    12    3   12 1
    13    4   13 1
    14    4   14 1
    15    5   15 1
    16    5   16 1
