@<TRIPOS>MOLECULE
14_dichlorobenzene
   12    12     0     0     0
SMALL
USER_CHARGES

@<TRIPOS>ATOM
      1 C1          0.8178   -0.4385    0.5644 C.ar      1 MOL        -0.1164
      2 C2          0.7994   -0.4058    1.9588 C.ar      1 MOL        -0.1164
      3 C3          2.9371   -1.5972    0.6197 C.ar      1 MOL        -0.1164
      4 C4          2.9185   -1.5646    2.0141 C.ar      1 MOL        -0.1164
      5 C5          1.8867   -1.0341   -0.1051 C.ar      1 MOL         0.0157
      6 C6          1.8497   -0.9689    2.6836 C.ar      1 MOL         0.0157
      7 Cl1         1.9097   -1.0742   -1.8253 Cl        1 MOL        -0.0875
      8 Cl2         1.8268   -0.9287    4.4038 Cl        1 MOL        -0.0875
      9 H1         -0.0071    0.0040    0.0122 H         1 MOL         0.1524
     10 H2         -0.0396    0.0615    2.4676 H         1 MOL         0.1524
     11 H3          3.7761   -2.0645    0.1109 H         1 MOL         0.1524
     12 H4          3.7434   -2.0071    2.5663 H         1 MOL         0.1524
@<TRIPOS>BOND
     1    1    2 ar
     2    1    5 ar
     3    2    6 ar
     4    3    4 ar
     5    3    5 ar
     6    4    6 ar
     7    5    7 1
     8    6    8 1
     9    1    9 1
    10    2   10 1
    11    3   11 1
    12    4   12 1
