@<TRIPOS>MOLECULE
ch3ph.xyz
   25    25     0     0     0
SMALL
USER_CHARGES

@<TRIPOS>ATOM
      1 C1          1.3376    2.4162    0.0231 C.ar      1 MOL        -0.0944
      2 C2         -0.7133    1.1854    0.0000 C.ar      1 MOL        -0.0800
      3 C3          2.0491    1.2256    0.0000 C.ar      1 MOL        -0.1391
      4 C4          0.0000    0.0000    0.0000 C.ar      1 MOL        -0.1379
      5 C5         -0.0502    2.4075    0.0307 C.ar      1 MOL        -0.1525
      6 C6          1.3932    0.0000    0.0000 C.ar      1 MOL        -0.0580
      7 C7         -0.8691    3.6657   -0.0465 C.2       1 MOL         0.6823
      8 C8          2.1635   -1.2991    0.0104 C.3       1 MOL        -0.0488
      9 C9         -1.2173    5.9813    0.4873 C.3       1 MOL         0.0786
     10 C10         0.1890    4.6528    1.9780 C.3       1 MOL         0.0907
     11 N1         -0.4888    4.7429    0.6967 N.am      1 MOL        -0.4806
     12 O1         -1.8129    3.7149   -0.7951 O.2       1 MOL        -0.5809
     13 H1          1.8707    3.3503    0.0140 H         1 MOL         0.1361
     14 H2         -1.7871    1.1724   -0.0350 H         1 MOL         0.1456
     15 H3          3.1247    1.2555   -0.0228 H         1 MOL         0.1311
     16 H4         -0.5320   -0.9358   -0.0145 H         1 MOL         0.1326
     17 H5          3.1895   -1.1502   -0.3059 H         1 MOL         0.0417
     18 H6          2.1824   -1.7278    1.0087 H         1 MOL         0.0463
     19 H7          1.7091   -2.0282   -0.6518 H         1 MOL         0.0452
     20 H8         -1.4604    6.0943   -0.5570 H         1 MOL         0.0639
     21 H9         -2.1417    6.0047    1.0605 H         1 MOL         0.0255
     22 H10        -0.5909    6.8081    0.8023 H         1 MOL         0.0359
     23 H11         0.5210    3.6477    2.1775 H         1 MOL         0.0529
     24 H12        -0.4878    4.9490    2.7760 H         1 MOL         0.0265
     25 H13         1.0489    5.3152    2.0001 H         1 MOL         0.0373
@<TRIPOS>BOND
     1    1    3 ar
     2    1    5 ar
     3    2    4 ar
     4    2    5 ar
     5    3    6 ar
     6    4    6 ar
     7    5    7 1
     8    6    8 1
     9    7   11 am
    10    7   12 2
    11    9   11 1
    12   10   11 1
    13    1   13 1
    14    2   14 1
    15    3   15 1
    16    4   16 1
    17    8   17 1
    18    8   18 1
    19    8   19 1
    20    9   20 1
    21    9   21 1
    22    9   22 1
    23   10   23 1
    24   10   24 1
    25   10   25 1
