@<TRIPOS>MOLECULE
1-chlorodibenzo-p-dioxin
   22    24     0     0     0
SMALL
USER_CHARGES

@<TRIPOS>ATOM
      1 C1         -1.8584    0.7400    0.8000 C.ar      1 MOL        -0.1267
      2 C2         -1.0039   -0.2568    0.3257 C.ar      1 MOL        -0.1263
      3 C3         -6.9616   -4.1465    1.8755 C.ar      1 MOL        -0.1195
      4 C4         -3.1487    0.4152    1.2196 C.ar      1 MOL        -0.1149
      5 C5         -1.4367   -1.5819    0.2693 C.ar      1 MOL        -0.1128
      6 C6         -6.5287   -2.8214    1.9320 C.ar      1 MOL        -0.1175
      7 C7         -6.1071   -5.1433    1.4010 C.ar      1 MOL        -0.1262
      8 C8         -3.5799   -0.9097    1.1626 C.ar      1 MOL         0.0603
      9 C9         -2.7266   -1.9051    0.6889 C.ar      1 MOL         0.0615
     10 C10        -5.2389   -2.4982    1.5123 C.ar      1 MOL         0.0720
     11 C11        -4.3856   -3.4936    1.0385 C.ar      1 MOL         0.0691
     12 C12        -4.8168   -4.8184    0.9815 C.ar      1 MOL         0.0250
     13 O1         -4.8561   -1.1828    1.5855 O.3       1 MOL        -0.2223
     14 O2         -3.1093   -3.2205    0.6157 O.3       1 MOL        -0.2117
     15 Cl1        -3.7901   -6.0785    0.4013 Cl        1 MOL        -0.0598
     16 H1         -1.5175    1.7706    0.8425 H         1 MOL         0.1404
     17 H2          0.0000   -0.0001    0.0001 H         1 MOL         0.1403
     18 H3         -7.9656   -4.4030    2.2010 H         1 MOL         0.1448
     19 H4         -3.8082    1.1963    1.5873 H         1 MOL         0.1553
     20 H5         -0.7663   -2.3523   -0.1008 H         1 MOL         0.1579
     21 H6         -7.1995   -2.0508    2.3017 H         1 MOL         0.1587
     22 H7         -6.4633   -6.1698    1.3647 H         1 MOL         0.1525
@<TRIPOS>BOND
     1    1    2 ar
     2    1    4 ar
     3    2    5 ar
     4    3    6 ar
     5    3    7 ar
     6    4    8 ar
     7    5    9 ar
     8    6   10 ar
     9    7   12 ar
    10    8    9 ar
    11    8   13 1
    12    9   14 1
    13   10   11 ar
    14   10   13 1
    15   11   12 ar
    16   11   14 1
    17   12   15 1
    18    1   16 1
    19    2   17 1
    20    3   18 1
    21    4   19 1
    22    5   20 1
    23    6   21 1
    24    7   22 1
