@<TRIPOS>MOLECULE
ac3glyc.xyz	      0.0000000
   29    28     0     0     0
SMALL
USER_CHARGES

@<TRIPOS>ATOM
      1 C1          1.5004    0.0000    0.0000 C.2       1 MOL         0.6502
      2 C2          6.6413   -3.2578    3.1617 C.2       1 MOL         0.6451
      3 C3          3.0295    0.0275    2.9671 C.2       1 MOL         0.6565
      4 C4          0.0000    0.0000    0.0000 C.3       1 MOL        -0.1550
      5 C5          6.8263   -3.4907    4.6340 C.3       1 MOL        -0.1548
      6 C6          3.4045    1.3595    3.5474 C.3       1 MOL        -0.1540
      7 C7          3.3800   -1.4578    0.0808 C.3       1 MOL         0.1236
      8 C8          5.1860   -2.3751    1.5474 C.3       1 MOL         0.1426
      9 C9          3.8355   -1.6877    1.5166 C.3       1 MOL         0.1220
     10 O1          2.1869    0.9726    0.0000 O.2       1 MOL        -0.5329
     11 O2          7.4218   -3.5564    2.3147 O.2       1 MOL        -0.5288
     12 O3          1.9990   -0.5378    3.1584 O.2       1 MOL        -0.5373
     13 O4          1.9823   -1.2394    0.0114 O.3       1 MOL        -0.4279
     14 O5          5.4805   -2.6678    2.9006 O.3       1 MOL        -0.4262
     15 O6          3.9950   -0.4460    2.1867 O.3       1 MOL        -0.4263
     16 H1         -0.3753   -0.6574   -0.7748 H         1 MOL         0.0674
     17 H2         -0.3607    1.0069   -0.1495 H         1 MOL         0.0717
     18 H3         -0.3426   -0.3765    0.9574 H         1 MOL         0.0799
     19 H4          6.8026   -2.5417    5.1572 H         1 MOL         0.0695
     20 H5          6.0123   -4.0975    5.0133 H         1 MOL         0.0695
     21 H6          7.7710   -3.9853    4.8040 H         1 MOL         0.0735
     22 H7          3.4578    2.0830    2.7417 H         1 MOL         0.0785
     23 H8          2.6578    1.6630    4.2662 H         1 MOL         0.0710
     24 H9          4.3803    1.3023    4.0142 H         1 MOL         0.0675
     25 H10         3.5520   -2.3521   -0.5031 H         1 MOL         0.0727
     26 H11         3.9112   -0.6268   -0.3600 H         1 MOL         0.0737
     27 H12         5.1553   -3.2966    0.9804 H         1 MOL         0.0551
     28 H13         5.9591   -1.7397    1.1354 H         1 MOL         0.0633
     29 H14         3.1032   -2.2854    2.0397 H         1 MOL         0.0901
@<TRIPOS>BOND
     1    1    4 1
     2    1   10 2
     3    1   13 1
     4    2    5 1
     5    2   11 2
     6    2   14 1
     7    3    6 1
     8    3   12 2
     9    3   15 1
    10    7    9 1
    11    7   13 1
    12    8    9 1
    13    8   14 1
    14    9   15 1
    15    4   16 1
    16    4   17 1
    17    4   18 1
    18    5   19 1
    19    5   20 1
    20    5   21 1
    21    6   22 1
    22    6   23 1
    23    6   24 1
    24    7   25 1
    25    7   26 1
    26    8   27 1
    27    8   28 1
    28    9   29 1
