@<TRIPOS>MOLECULE
1_bromo_2_methylpropane
   14    13     0     0     0
SMALL
USER_CHARGES

@<TRIPOS>ATOM
      1 C1          0.3901   -0.1784   -1.0082 C.3       1 MOL        -0.0920
      2 C2         -0.6997    1.9368   -1.7724 C.3       1 MOL        -0.0920
      3 C3          0.0069    0.2526   -3.4789 C.3       1 MOL        -0.0031
      4 C4         -0.5318    0.4429   -2.0613 C.3       1 MOL        -0.0634
      5 Br1         1.7597    1.0800   -3.6874 Br        1 MOL        -0.1816
      6 H1          1.3970    0.2500   -1.0594 H         1 MOL         0.0392
      7 H2         -0.0000    0.0000    0.0000 H         1 MOL         0.0392
      8 H3          0.4761   -1.2616   -1.1367 H         1 MOL         0.0392
      9 H4          0.2569    2.4656   -1.8427 H         1 MOL         0.0392
     10 H5         -1.1023    2.0963   -0.7667 H         1 MOL         0.0392
     11 H6         -1.3940    2.3951   -2.4847 H         1 MOL         0.0392
     12 H7         -0.6456    0.6936   -4.2382 H         1 MOL         0.0703
     13 H8          0.1620   -0.8051   -3.7128 H         1 MOL         0.0703
     14 H9         -1.5194   -0.0274   -1.9739 H         1 MOL         0.0561
@<TRIPOS>BOND
     1    1    4 1
     2    2    4 1
     3    3    4 1
     4    3    5 1
     5    1    6 1
     6    1    7 1
     7    1    8 1
     8    2    9 1
     9    2   10 1
    10    2   11 1
    11    3   12 1
    12    3   13 1
    13    4   14 1
