@<TRIPOS>MOLECULE
SAMPL4_039
   21    21     0     0     0
SMALL
USER_CHARGES

@<TRIPOS>ATOM
      1 C1          3.2580   -1.9340    0.4980 C.ar      1 MOL        -0.1300
      2 C2          2.3340   -1.2760   -0.3140 C.ar      1 MOL        -0.1330
      3 C3          3.1420   -1.8620    1.8860 C.ar      1 MOL        -0.1290
      4 C4          1.2950   -0.5460    0.2620 C.ar      1 MOL        -0.1260
      5 C5          2.1030   -1.1310    2.4630 C.ar      1 MOL        -0.0733
      6 C6          1.1790   -0.4730    1.6510 C.ar      1 MOL        -0.0763
      7 C7          1.9980   -1.0690    3.9510 C.3       1 MOL        -0.0528
      8 C8         -1.0670   -0.5770    2.7590 C.3       1 MOL        -0.0891
      9 C9          0.0590    0.3150    2.2450 C.3       1 MOL        -0.0391
     10 H1          4.0670   -2.5020    0.0490 H         1 MOL         0.1300
     11 H2          2.4250   -1.3320   -1.3950 H         1 MOL         0.1300
     12 H3          3.8680   -2.3770    2.5100 H         1 MOL         0.1290
     13 H4          0.5800   -0.0370   -0.3790 H         1 MOL         0.1300
     14 H5          2.5650   -0.2130    4.3360 H         1 MOL         0.0437
     15 H6          0.9540   -0.9690    4.2710 H         1 MOL         0.0437
     16 H7          2.3880   -1.9840    4.4150 H         1 MOL         0.0437
     17 H8         -1.4600   -1.2150    1.9600 H         1 MOL         0.0357
     18 H9         -1.8940    0.0290    3.1450 H         1 MOL         0.0357
     19 H10        -0.7160   -1.2270    3.5670 H         1 MOL         0.0357
     20 H11         0.4290    0.9430    3.0710 H         1 MOL         0.0462
     21 H12        -0.3480    1.0190    1.5020 H         1 MOL         0.0462
@<TRIPOS>BOND
     1    1    2 ar
     2    1    3 ar
     3    2    4 ar
     4    3    5 ar
     5    4    6 ar
     6    5    6 ar
     7    5    7 1
     8    6    9 1
     9    8    9 1
    10    1   10 1
    11    2   11 1
    12    3   12 1
    13    4   13 1
    14    7   14 1
    15    7   15 1
    16    7   16 1
    17    8   17 1
    18    8   18 1
    19    8   19 1
    20    9   20 1
    21    9   21 1
