@<TRIPOS>MOLECULE
2_chloro_2_methylpropane
   14    13     0     0     0
SMALL
USER_CHARGES

@<TRIPOS>ATOM
      1 C1          0.7749    0.2118   -0.7456 C.3       1 MOL        -0.0961
      2 C2         -0.8097    1.6428   -2.0696 C.3       1 MOL        -0.0961
      3 C3          1.6695    1.8600   -2.4175 C.3       1 MOL        -0.0961
      4 C4          0.5635    1.5787   -1.3987 C.3       1 MOL         0.0806
      5 Cl1         0.6327    2.8393   -0.1192 Cl        1 MOL        -0.2152
      6 H1          1.7476    0.1536   -0.2436 H         1 MOL         0.0470
      7 H2         -0.0000    0.0000    0.0000 H         1 MOL         0.0470
      8 H3          0.7407   -0.5886   -1.4932 H         1 MOL         0.0470
      9 H4         -1.6159    1.4604   -1.3498 H         1 MOL         0.0470
     10 H5         -0.9861    2.6222   -2.5289 H         1 MOL         0.0470
     11 H6         -0.8955    0.8879   -2.8594 H         1 MOL         0.0470
     12 H7          2.6601    1.8375   -1.9495 H         1 MOL         0.0470
     13 H8          1.5426    2.8429   -2.8853 H         1 MOL         0.0470
     14 H9          1.6653    1.1107   -3.2173 H         1 MOL         0.0470
@<TRIPOS>BOND
     1    1    4 1
     2    2    4 1
     3    3    4 1
     4    4    5 1
     5    1    6 1
     6    1    7 1
     7    1    8 1
     8    2    9 1
     9    2   10 1
    10    2   11 1
    11    3   12 1
    12    3   13 1
    13    3   14 1
