@<TRIPOS>MOLECULE
333_trimethoxypropionitrile
   21    20     0     0     0
SMALL
USER_CHARGES

@<TRIPOS>ATOM
      1 C1          3.1391   -3.4250   -2.6734 C.1       1 MOL         0.2282
      2 C2          0.8309   -0.5280   -0.4458 C.3       1 MOL         0.1319
      3 C3         -0.0314   -2.7624   -3.9308 C.3       1 MOL         0.1319
      4 C4          2.3473    0.6409   -3.2719 C.3       1 MOL         0.1319
      5 C5          2.0630   -2.7911   -1.8914 C.3       1 MOL        -0.0415
      6 C6          1.5223   -1.5013   -2.5604 C.3       1 MOL         0.5345
      7 N1          3.9860   -3.9252   -3.2889 N.1       1 MOL        -0.3574
      8 O1          0.4722   -0.9122   -1.7653 O.3       1 MOL        -0.4455
      9 O2          1.0258   -1.8137   -3.8821 O.3       1 MOL        -0.4455
     10 O3          2.6577   -0.6108   -2.6724 O.3       1 MOL        -0.4455
     11 H1          1.6862    0.1511   -0.4830 H         1 MOL         0.0431
     12 H2          1.0831   -1.4170    0.1377 H         1 MOL         0.0431
     13 H3         -0.0164   -0.0180    0.0187 H         1 MOL         0.0431
     14 H4          0.3818   -3.7725   -3.8763 H         1 MOL         0.0431
     15 H5         -0.5926   -2.6364   -4.8601 H         1 MOL         0.0431
     16 H6         -0.6969   -2.5970   -3.0803 H         1 MOL         0.0431
     17 H7          2.2586    1.4053   -2.4961 H         1 MOL         0.0431
     18 H8          1.4088    0.5580   -3.8257 H         1 MOL         0.0431
     19 H9          3.1509    0.9147   -3.9597 H         1 MOL         0.0431
     20 H10         2.4639   -2.5593   -0.8971 H         1 MOL         0.0944
     21 H11         1.2511   -3.5105   -1.7355 H         1 MOL         0.0944
@<TRIPOS>BOND
     1    1    5 1
     2    1    7 3
     3    2    8 1
     4    3    9 1
     5    4   10 1
     6    5    6 1
     7    6    8 1
     8    6    9 1
     9    6   10 1
    10    2   11 1
    11    2   12 1
    12    2   13 1
    13    3   14 1
    14    3   15 1
    15    3   16 1
    16    4   17 1
    17    4   18 1
    18    4   19 1
    19    5   20 1
    20    5   21 1
