@<TRIPOS>MOLECULE
2_bromo_2_methylpropane
   14    13     0     0     0
SMALL
USER_CHARGES

@<TRIPOS>ATOM
      1 C1          0.7479    0.2211   -0.7704 C.3       1 MOL        -0.0908
      2 C2         -0.9009    1.6387   -2.0419 C.3       1 MOL        -0.0908
      3 C3          1.5698    1.8966   -2.4623 C.3       1 MOL        -0.0908
      4 C4          0.4950    1.5771   -1.4256 C.3       1 MOL         0.0518
      5 Br1         0.5911    2.9536   -0.0157 Br        1 MOL        -0.2063
      6 H1          1.7334    0.1828   -0.2916 H         1 MOL         0.0474
      7 H2         -0.0000    0.0000    0.0000 H         1 MOL         0.0474
      8 H3          0.7084   -0.5847   -1.5119 H         1 MOL         0.0474
      9 H4         -1.6801    1.4492   -1.2945 H         1 MOL         0.0474
     10 H5         -1.1031    2.6209   -2.4844 H         1 MOL         0.0474
     11 H6         -1.0120    0.8895   -2.8338 H         1 MOL         0.0474
     12 H7          2.5717    1.8935   -2.0176 H         1 MOL         0.0474
     13 H8          1.4139    2.8835   -2.9134 H         1 MOL         0.0474
     14 H9          1.5639    1.1578   -3.2715 H         1 MOL         0.0474
@<TRIPOS>BOND
     1    1    4 1
     2    2    4 1
     3    3    4 1
     4    4    5 1
     5    1    6 1
     6    1    7 1
     7    1    8 1
     8    2    9 1
     9    2   10 1
    10    2   11 1
    11    3   12 1
    12    3   13 1
    13    3   14 1
