@<TRIPOS>MOLECULE
5-iodouracil
   12    12     0     0     0
SMALL
USER_CHARGES

@<TRIPOS>ATOM
      1 C1         -1.5240    0.5120    1.2700 C.2       1 MOL         0.0939
      2 C2         -2.6200    0.1500    1.9480 C.2       1 MOL        -0.1961
      3 C3         -3.0940   -1.2620    1.8360 C.2       1 MOL         0.7300
      4 C4         -1.1750   -1.6840    0.3080 C.2       1 MOL         0.8034
      5 N1         -0.8210   -0.3560    0.4810 N.am      1 MOL        -0.4668
      6 N2         -2.3170   -2.0710    1.0120 N.am      1 MOL        -0.5825
      7 O1         -4.0890   -1.6730    2.4260 O.2       1 MOL        -0.5860
      8 O2         -0.5380   -2.4600   -0.4050 O.2       1 MOL        -0.6261
      9 I1         -3.6560    1.4670    3.1240 I         1 MOL        -0.0602
     10 H1         -1.1190    1.5180    1.3010 H         1 MOL         0.1733
     11 H2         -0.0000    0.0000   -0.0000 H         1 MOL         0.3587
     12 H3         -2.6100   -3.0390    0.9120 H         1 MOL         0.3584
@<TRIPOS>BOND
     1    1    2 2
     2    1    5 1
     3    2    3 1
     4    2    9 1
     5    3    6 am
     6    3    7 2
     7    4    5 am
     8    4    6 am
     9    4    8 2
    10    1   10 1
    11    5   11 1
    12    6   12 1
