@<TRIPOS>MOLECULE
2_nitrophenol
   15    15     0     0     0
SMALL
USER_CHARGES

@<TRIPOS>ATOM
      1 C1          1.8846   -1.0376   -0.1090 C.ar      1 MOL        -0.1679
      2 C2          0.8176   -0.4410    0.5626 C.ar      1 MOL        -0.0568
      3 C3          2.9348   -1.6038    0.6137 C.ar      1 MOL        -0.0451
      4 C4          0.8008   -0.4105    1.9570 C.ar      1 MOL        -0.2192
      5 C5          2.9180   -1.5734    2.0082 C.ar      1 MOL        -0.1968
      6 C6          1.8509   -0.9767    2.6799 C.ar      1 MOL         0.1838
      7 N1          3.9971   -2.1550    2.7291 N.pl3     1 MOL         0.3240
      8 O1          4.9385   -2.6817    2.0901 O.3       1 MOL        -0.1954
      9 O2          3.9754   -2.1236    3.9822 O.2       1 MOL        -0.1954
     10 O3          1.8116   -0.9352    4.0422 O.3       1 MOL        -0.4722
     11 H1          1.8977   -1.0612   -1.1948 H         1 MOL         0.1501
     12 H2         -0.0000   -0.0003   -0.0001 H         1 MOL         0.1454
     13 H3          3.7598   -2.0654    0.0768 H         1 MOL         0.1637
     14 H4         -0.0334    0.0561    2.4739 H         1 MOL         0.1473
     15 H5          1.1535   -0.2715    4.3157 H         1 MOL         0.4345
@<TRIPOS>BOND
     1    1    2 ar
     2    1    3 ar
     3    2    4 ar
     4    3    5 ar
     5    4    6 ar
     6    5    6 ar
     7    5    7 1
     8    6   10 1
     9    7    8 1
    10    7    9 2
    11    1   11 1
    12    2   12 1
    13    3   13 1
    14    4   14 1
    15   10   15 1
