@<TRIPOS>MOLECULE
pentanoic_acid
   17    16     0     0     0
SMALL
USER_CHARGES

@<TRIPOS>ATOM
      1 C1          1.6524   -1.7675    3.5067 C.2       1 MOL         0.6338
      2 C2         -2.8811   -0.8826    1.4178 C.3       1 MOL        -0.0909
      3 C3          0.8489   -0.8488    2.6143 C.3       1 MOL        -0.1240
      4 C4         -1.4435   -0.4115    1.5738 C.3       1 MOL        -0.0798
      5 C5         -0.6037   -1.3074    2.4860 C.3       1 MOL        -0.0756
      6 O1          1.2197   -2.7566    4.0816 O.2       1 MOL        -0.5494
      7 O2          2.9470   -1.3643    3.5965 O.3       1 MOL        -0.6116
      8 H1         -3.4536   -0.1541    0.8345 H         1 MOL         0.0342
      9 H2         -2.9346   -1.8412    0.8936 H         1 MOL         0.0342
     10 H3         -3.3666   -0.9926    2.3925 H         1 MOL         0.0342
     11 H4          0.8788    0.1579    3.0455 H         1 MOL         0.0784
     12 H5          1.3299   -0.8350    1.6309 H         1 MOL         0.0784
     13 H6         -1.4526    0.6012    1.9944 H         1 MOL         0.0427
     14 H7         -0.9739   -0.3397    0.5859 H         1 MOL         0.0427
     15 H8         -1.0685   -1.3182    3.4801 H         1 MOL         0.0546
     16 H9         -0.6356   -2.3414    2.1203 H         1 MOL         0.0546
     17 H10         3.5177   -1.9283    4.1614 H         1 MOL         0.4434
@<TRIPOS>BOND
     1    1    3 1
     2    1    6 2
     3    1    7 1
     4    2    4 1
     5    3    5 1
     6    4    5 1
     7    2    8 1
     8    2    9 1
     9    2   10 1
    10    3   11 1
    11    3   12 1
    12    4   13 1
    13    4   14 1
    14    5   15 1
    15    5   16 1
    16    7   17 1
