@<TRIPOS>MOLECULE
diethylamine
   16    15     0     0     0
SMALL
USER_CHARGES

@<TRIPOS>ATOM
      1 C1         -0.6400    0.2434    3.4650 C.3       1 MOL        -0.1004
      2 C2          3.6761   -0.0439    1.1397 C.3       1 MOL        -0.1004
      3 C3          0.0815    0.3848    2.1354 C.3       1 MOL         0.1654
      4 C4          2.1909    0.2437    0.9992 C.3       1 MOL         0.1654
      5 N1          1.5069    0.1164    2.2786 N.3       1 MOL        -0.8257
      6 H1         -0.5399   -0.7716    3.8640 H         1 MOL         0.0365
      7 H2         -0.2447    0.9444    4.2079 H         1 MOL         0.0365
      8 H3         -1.7072    0.4522    3.3389 H         1 MOL         0.0365
      9 H4          4.1517    0.6584    1.8326 H         1 MOL         0.0365
     10 H5          3.8508   -1.0604    1.5081 H         1 MOL         0.0365
     11 H6          4.1723    0.0526    0.1686 H         1 MOL         0.0365
     12 H7         -0.0568    1.3973    1.7427 H         1 MOL         0.0295
     13 H8         -0.3445   -0.3111    1.4053 H         1 MOL         0.0295
     14 H9          1.7436   -0.4510    0.2809 H         1 MOL         0.0295
     15 H10         2.0433    1.2568    0.6111 H         1 MOL         0.0295
     16 H11         1.9074    0.7795    2.9412 H         1 MOL         0.3586
@<TRIPOS>BOND
     1    1    3 1
     2    2    4 1
     3    3    5 1
     4    4    5 1
     5    1    6 1
     6    1    7 1
     7    1    8 1
     8    2    9 1
     9    2   10 1
    10    2   11 1
    11    3   12 1
    12    3   13 1
    13    4   14 1
    14    4   15 1
    15    5   16 1
