@<TRIPOS>MOLECULE
isobutyl_isobutanoate
   26    25     0     0     0
SMALL
USER_CHARGES

@<TRIPOS>ATOM
      1 C1          1.4247   -0.3057   -1.6680 C.2       1 MOL         0.6315
      2 C2          1.3699   -1.9949    0.1583 C.3       1 MOL        -0.0886
      3 C3         -0.5633   -0.4172   -0.1461 C.3       1 MOL        -0.0886
      4 C4          1.9664   -1.5541   -5.6435 C.3       1 MOL        -0.0872
      5 C5          4.1754   -0.3643   -5.6915 C.3       1 MOL        -0.0872
      6 C6          2.7463   -0.2387   -3.6300 C.3       1 MOL         0.1418
      7 C7          0.5295   -1.2187   -0.8487 C.3       1 MOL        -0.1062
      8 C8          3.1733   -1.1109   -4.8138 C.3       1 MOL        -0.0788
      9 O1          1.7001    0.8503   -1.3743 O.2       1 MOL        -0.5388
     10 O2          1.8767   -0.9792   -2.7675 O.3       1 MOL        -0.4439
     11 H1          0.7445   -2.6685    0.7532 H         1 MOL         0.0464
     12 H2          1.8932   -1.3187    0.8435 H         1 MOL         0.0464
     13 H3          2.1296   -2.6002   -0.3479 H         1 MOL         0.0464
     14 H4         -1.2456   -1.0813    0.3948 H         1 MOL         0.0464
     15 H5         -1.1520    0.1562   -0.8705 H         1 MOL         0.0464
     16 H6         -0.1405    0.2934    0.5729 H         1 MOL         0.0464
     17 H7          2.2836   -2.1788   -6.4855 H         1 MOL         0.0366
     18 H8          1.4249   -0.6919   -6.0476 H         1 MOL         0.0366
     19 H9          1.2665   -2.1423   -5.0411 H         1 MOL         0.0366
     20 H10         4.5091   -0.9937   -6.5232 H         1 MOL         0.0366
     21 H11         5.0607   -0.0782   -5.1137 H         1 MOL         0.0366
     22 H12         3.7356    0.5467   -6.1117 H         1 MOL         0.0366
     23 H13         3.6192    0.0707   -3.0457 H         1 MOL         0.0552
     24 H14         2.2181    0.6585   -3.9703 H         1 MOL         0.0552
     25 H15         0.0380   -1.9164   -1.5380 H         1 MOL         0.0777
     26 H16         3.6538   -2.0174   -4.4240 H         1 MOL         0.0599
@<TRIPOS>BOND
     1    1    7 1
     2    1    9 2
     3    1   10 1
     4    2    7 1
     5    3    7 1
     6    4    8 1
     7    5    8 1
     8    6    8 1
     9    6   10 1
    10    2   11 1
    11    2   12 1
    12    2   13 1
    13    3   14 1
    14    3   15 1
    15    3   16 1
    16    4   17 1
    17    4   18 1
    18    4   19 1
    19    5   20 1
    20    5   21 1
    21    5   22 1
    22    6   23 1
    23    6   24 1
    24    7   25 1
    25    8   26 1
