@<TRIPOS>MOLECULE
4_chlorophenol
   13    13     0     0     0
SMALL
USER_CHARGES

@<TRIPOS>ATOM
      1 C1          0.8178   -0.4385    0.5644 C.ar      1 MOL        -0.1780
      2 C2          2.9371   -1.5972    0.6197 C.ar      1 MOL        -0.1780
      3 C3          0.7994   -0.4058    1.9588 C.ar      1 MOL        -0.0874
      4 C4          2.9185   -1.5646    2.0141 C.ar      1 MOL        -0.0874
      5 C5          1.8867   -1.0341   -0.1051 C.ar      1 MOL         0.1263
      6 C6          1.8497   -0.9689    2.6836 C.ar      1 MOL        -0.0196
      7 O1          1.9059   -1.0642   -1.4656 O.3       1 MOL        -0.4955
      8 Cl1         1.8267   -0.9286    4.4038 Cl        1 MOL        -0.0955
      9 H1         -0.0027    0.0029    0.0053 H         1 MOL         0.1473
     10 H2          3.7728   -2.0622    0.1040 H         1 MOL         0.1473
     11 H3         -0.0400    0.0617    2.4675 H         1 MOL         0.1493
     12 H4          3.7440   -2.0068    2.5662 H         1 MOL         0.1493
     13 H5          2.6776   -1.5828   -1.7582 H         1 MOL         0.4218
@<TRIPOS>BOND
     1    1    3 ar
     2    1    5 ar
     3    2    4 ar
     4    2    5 ar
     5    3    6 ar
     6    4    6 ar
     7    5    7 1
     8    6    8 1
     9    1    9 1
    10    2   10 1
    11    3   11 1
    12    4   12 1
    13    7   13 1
