@<TRIPOS>MOLECULE
dimethylamine
   10     9     0     0     0
SMALL
USER_CHARGES

@<TRIPOS>ATOM
      1 C1          1.0277    0.1348    0.3510 C.3       1 MOL         0.1540
      2 C2          2.3857    0.4585    2.3034 C.3       1 MOL         0.1540
      3 N1          1.0302    0.2824    1.8002 N.3       1 MOL        -0.8291
      4 H1          2.0053    0.3961   -0.0640 H         1 MOL         0.0272
      5 H2          0.2718    0.7879   -0.0938 H         1 MOL         0.0272
      6 H3          0.7949   -0.8980    0.0770 H         1 MOL         0.0272
      7 H4          2.3700    0.8876    3.3093 H         1 MOL         0.0272
      8 H5          2.9488    1.1265    1.6458 H         1 MOL         0.0272
      9 H6          2.9027   -0.5044    2.3407 H         1 MOL         0.0272
     10 H7          0.4693    1.0948    2.0556 H         1 MOL         0.3579
@<TRIPOS>BOND
     1    1    3 1
     2    2    3 1
     3    1    4 1
     4    1    5 1
     5    1    6 1
     6    2    7 1
     7    2    8 1
     8    2    9 1
     9    3   10 1
