@<TRIPOS>MOLECULE
3_cyanophenol
   14    14     0     0     0
SMALL
USER_CHARGES

@<TRIPOS>ATOM
      1 C1          4.0608   -2.1543   -0.0062 C.1       1 MOL         0.2298
      2 C2          0.8324   -0.3948    0.5751 C.ar      1 MOL        -0.0955
      3 C3          1.8991   -1.0135   -0.0768 C.ar      1 MOL        -0.1283
      4 C4          0.8349   -0.2829    1.9655 C.ar      1 MOL        -0.1924
      5 C5          2.9708   -1.4085    2.0522 C.ar      1 MOL        -0.1200
      6 C6          2.9683   -1.5204    0.6618 C.ar      1 MOL         0.0174
      7 C7          1.9042   -0.7896    2.7040 C.ar      1 MOL         0.1216
      8 N1          4.9492   -2.6698   -0.5495 N.1       1 MOL        -0.3554
      9 O1          1.9057   -0.6810    4.0609 O.3       1 MOL        -0.4936
     10 H1         -0.0003   -0.0001    0.0002 H         1 MOL         0.1417
     11 H2          1.8825   -1.0931   -1.1612 H         1 MOL         0.1478
     12 H3          0.0009    0.2000    2.4674 H         1 MOL         0.1396
     13 H4          3.8005   -1.8011    2.6364 H         1 MOL         0.1639
     14 H5          1.2259   -0.0346    4.3256 H         1 MOL         0.4236
@<TRIPOS>BOND
     1    1    6 1
     2    1    8 3
     3    2    3 ar
     4    2    4 ar
     5    3    6 ar
     6    4    7 ar
     7    5    6 ar
     8    5    7 ar
     9    7    9 1
    10    2   10 1
    11    3   11 1
    12    4   12 1
    13    5   13 1
    14    9   14 1
