@<TRIPOS>MOLECULE
oct_1_ene
   24    23     0     0     0
SMALL
USER_CHARGES

@<TRIPOS>ATOM
      1 C1          1.6154    3.7428   -1.4011 C.2       1 MOL        -0.2246
      2 C2          0.7151    3.0149   -0.7310 C.2       1 MOL        -0.1642
      3 C3         -4.3233    5.0660    4.5410 C.3       1 MOL        -0.0896
      4 C4         -0.7003    3.4498   -0.4852 C.3       1 MOL        -0.0492
      5 C5         -4.0640    4.8405    3.0599 C.3       1 MOL        -0.0780
      6 C6         -0.9900    3.5676    1.0132 C.3       1 MOL        -0.0728
      7 C7         -2.6686    4.2644    2.8159 C.3       1 MOL        -0.0767
      8 C8         -2.4017    4.0763    1.3210 C.3       1 MOL        -0.0771
      9 H1          2.6290    3.3902   -1.5560 H         1 MOL         0.1104
     10 H2          1.3457    4.7119   -1.8063 H         1 MOL         0.1104
     11 H3          1.0130    2.0430   -0.3461 H         1 MOL         0.1175
     12 H4         -4.2584    4.1260    5.0982 H         1 MOL         0.0314
     13 H5         -3.5973    5.7674    4.9649 H         1 MOL         0.0314
     14 H6         -5.3247    5.4813    4.6914 H         1 MOL         0.0314
     15 H7         -1.3644    2.7090   -0.9438 H         1 MOL         0.0446
     16 H8         -0.9021    4.4093   -0.9763 H         1 MOL         0.0446
     17 H9         -4.8234    4.1573    2.6621 H         1 MOL         0.0374
     18 H10        -4.1727    5.7923    2.5271 H         1 MOL         0.0374
     19 H11        -0.8368    2.5971    1.5019 H         1 MOL         0.0402
     20 H12        -0.2716    4.2628    1.4668 H         1 MOL         0.0402
     21 H13        -2.5818    3.3046    3.3371 H         1 MOL         0.0382
     22 H14        -1.9145    4.9364    3.2429 H         1 MOL         0.0382
     23 H15        -3.1414    3.3866    0.8965 H         1 MOL         0.0392
     24 H16        -2.5370    5.0374    0.8095 H         1 MOL         0.0392
@<TRIPOS>BOND
     1    1    2 2
     2    2    4 1
     3    3    5 1
     4    4    6 1
     5    5    7 1
     6    6    8 1
     7    7    8 1
     8    1    9 1
     9    1   10 1
    10    2   11 1
    11    3   12 1
    12    3   13 1
    13    3   14 1
    14    4   15 1
    15    4   16 1
    16    5   17 1
    17    5   18 1
    18    6   19 1
    19    6   20 1
    20    7   21 1
    21    7   22 1
    22    8   23 1
    23    8   24 1
