@<TRIPOS>MOLECULE
clet2o.xyz	      0.0000000
   15    14     0     0     0
SMALL
USER_CHARGES

@<TRIPOS>ATOM
      1 C1          2.3159    1.4220    0.0000 C.3       1 MOL         0.1359
      2 C2          4.3805    2.5585    0.0001 C.3       1 MOL         0.1358
      3 C3          1.7922    0.0000    0.0000 C.3       1 MOL         0.0478
      4 C4          5.8622    2.2407   -0.0000 C.3       1 MOL         0.0478
      5 O1          3.7106    1.3319   -0.0000 O.3       1 MOL        -0.4275
      6 Cl1         0.0000    0.0000    0.0000 Cl        1 MOL        -0.1965
      7 Cl2         6.8204    3.7553    0.0002 Cl        1 MOL        -0.1965
      8 H1          1.9647    1.9529   -0.8815 H         1 MOL         0.0379
      9 H2          1.9647    1.9529    0.8815 H         1 MOL         0.0379
     10 H3          4.1196    3.1393   -0.8813 H         1 MOL         0.0379
     11 H4          4.1197    3.1390    0.8817 H         1 MOL         0.0379
     12 H5          2.1148   -0.5310   -0.8815 H         1 MOL         0.0754
     13 H6          2.1148   -0.5310    0.8815 H         1 MOL         0.0754
     14 H7          6.1384    1.6844   -0.8817 H         1 MOL         0.0754
     15 H8          6.1385    1.6840    0.8814 H         1 MOL         0.0754
@<TRIPOS>BOND
     1    1    3 1
     2    1    5 1
     3    2    4 1
     4    2    5 1
     5    3    6 1
     6    4    7 1
     7    1    8 1
     8    1    9 1
     9    2   10 1
    10    2   11 1
    11    3   12 1
    12    3   13 1
    13    4   14 1
    14    4   15 1
