@<TRIPOS>MOLECULE
4_nitrophenol
   15    15     0     0     0
SMALL
USER_CHARGES

@<TRIPOS>ATOM
      1 C1          0.8178   -0.4385    0.5644 C.ar      1 MOL        -0.0319
      2 C2          2.9371   -1.5972    0.6197 C.ar      1 MOL        -0.0319
      3 C3          0.7994   -0.4058    1.9588 C.ar      1 MOL        -0.1962
      4 C4          2.9185   -1.5646    2.0141 C.ar      1 MOL        -0.1962
      5 C5          1.8867   -1.0341   -0.1051 C.ar      1 MOL        -0.2123
      6 C6          1.8497   -0.9689    2.6836 C.ar      1 MOL         0.1675
      7 N1          1.9042   -1.0694   -1.5246 N.pl3     1 MOL         0.3167
      8 O1          0.9484   -0.5590   -2.1573 O.3       1 MOL        -0.2082
      9 O2          2.8753   -1.6096   -2.1074 O.2       1 MOL        -0.2082
     10 O3          1.8323   -0.9359    4.0442 O.3       1 MOL        -0.4846
     11 H1         -0.0075    0.0034    0.0116 H         1 MOL         0.1697
     12 H2          3.7762   -2.0651    0.1102 H         1 MOL         0.1697
     13 H3         -0.0355    0.0604    2.4747 H         1 MOL         0.1580
     14 H4          3.7401   -2.0043    2.5731 H         1 MOL         0.1580
     15 H5          1.1760   -0.2766    4.3348 H         1 MOL         0.4303
@<TRIPOS>BOND
     1    1    3 ar
     2    1    5 ar
     3    2    4 ar
     4    2    5 ar
     5    3    6 ar
     6    4    6 ar
     7    5    7 1
     8    6   10 1
     9    7    8 1
    10    7    9 2
    11    1   11 1
    12    2   12 1
    13    3   13 1
    14    4   14 1
    15   10   15 1
