@<TRIPOS>MOLECULE
hexanal
   19    18     0     0     0
SMALL
USER_CHARGES

@<TRIPOS>ATOM
      1 C1          1.0801    2.1730   -6.8042 C.2       1 MOL         0.5602
      2 C2         -0.1636   -0.2887   -1.0437 C.3       1 MOL        -0.0902
      3 C3          0.5536    1.1252   -5.8514 C.3       1 MOL        -0.1977
      4 C4          0.4168    0.7620   -1.9768 C.3       1 MOL        -0.0774
      5 C5          0.7706    1.4609   -4.3783 C.3       1 MOL        -0.0719
      6 C6          0.1592    0.4130   -3.4430 C.3       1 MOL        -0.0790
      7 O1          1.6925    3.1814   -6.4704 O.2       1 MOL        -0.5230
      8 H1          0.8557    1.9852   -7.8686 H         1 MOL        -0.0085
      9 H2          0.0294   -0.0177   -0.0009 H         1 MOL         0.0329
     10 H3          0.2865   -1.2692   -1.2289 H         1 MOL         0.0329
     11 H4         -1.2466   -0.3766   -1.1768 H         1 MOL         0.0329
     12 H5          1.0227    0.1687   -6.1049 H         1 MOL         0.0677
     13 H6         -0.5202    1.0343   -6.0496 H         1 MOL         0.0677
     14 H7          1.4951    0.8453   -1.7980 H         1 MOL         0.0387
     15 H8         -0.0275    1.7361   -1.7417 H         1 MOL         0.0387
     16 H9          1.8412    1.5700   -4.1670 H         1 MOL         0.0472
     17 H10         0.3039    2.4319   -4.1720 H         1 MOL         0.0472
     18 H11        -0.9215    0.3508   -3.6200 H         1 MOL         0.0408
     19 H12         0.5775   -0.5766   -3.6596 H         1 MOL         0.0408
@<TRIPOS>BOND
     1    1    3 1
     2    1    7 2
     3    2    4 1
     4    3    5 1
     5    4    6 1
     6    5    6 1
     7    1    8 1
     8    2    9 1
     9    2   10 1
    10    2   11 1
    11    3   12 1
    12    3   13 1
    13    4   14 1
    14    4   15 1
    15    5   16 1
    16    5   17 1
    17    6   18 1
    18    6   19 1
