@<TRIPOS>MOLECULE
hydrazine
    6     5     0     0     0
SMALL
USER_CHARGES

@<TRIPOS>ATOM
      1 N1         -0.8077    0.5696   -0.2485 N.3       1 MOL        -0.6890
      2 N2         -1.9600   -0.2578   -0.3168 N.3       1 MOL        -0.6890
      3 H1         -0.9248    1.2417    0.5084 H         1 MOL         0.3445
      4 H2          0.0000    0.0000    0.0000 H         1 MOL         0.3445
      5 H3         -2.0654   -0.7591    0.5642 H         1 MOL         0.3445
      6 H4         -1.8167   -0.9696   -1.0318 H         1 MOL         0.3445
@<TRIPOS>BOND
     1    1    2 1
     2    1    3 1
     3    1    4 1
     4    2    5 1
     5    2    6 1
