@<TRIPOS>MOLECULE
3_chlorophenol
   13    13     0     0     0
SMALL
USER_CHARGES

@<TRIPOS>ATOM
      1 C1          0.8324   -0.3948    0.5751 C.ar      1 MOL        -0.0889
      2 C2          1.8991   -1.0135   -0.0768 C.ar      1 MOL        -0.1565
      3 C3          0.8349   -0.2829    1.9655 C.ar      1 MOL        -0.1601
      4 C4          2.9708   -1.4085    2.0522 C.ar      1 MOL        -0.2123
      5 C5          2.9683   -1.5204    0.6618 C.ar      1 MOL         0.1344
      6 C6          1.9042   -0.7896    2.7040 C.ar      1 MOL         0.0558
      7 O1          4.0086   -2.1248    0.0259 O.3       1 MOL        -0.4954
      8 Cl1         1.9058   -0.6518    4.4192 Cl        1 MOL        -0.0922
      9 H1          0.0000    0.0002    0.0001 H         1 MOL         0.1404
     10 H2          1.8917   -1.0973   -1.1601 H         1 MOL         0.1544
     11 H3         -0.0029    0.2015    2.4604 H         1 MOL         0.1492
     12 H4          3.8079   -1.8070    2.6207 H         1 MOL         0.1484
     13 H5          4.6596   -2.4137    0.6913 H         1 MOL         0.4227
@<TRIPOS>BOND
     1    1    2 ar
     2    1    3 ar
     3    2    5 ar
     4    3    6 ar
     5    4    5 ar
     6    4    6 ar
     7    5    7 1
     8    6    8 1
     9    1    9 1
    10    2   10 1
    11    3   11 1
    12    4   12 1
    13    7   13 1
