@<TRIPOS>MOLECULE
SAMPL4_025
   25    24     0     0     0
SMALL
USER_CHARGES

@<TRIPOS>ATOM
      1 C1         -7.2030    4.0560   -2.2770 C.3       1 MOL        -0.0921
      2 C2         -4.4490   -3.0690    1.7690 C.3       1 MOL        -0.1301
      3 C3         -6.8890    3.3360   -0.9760 C.3       1 MOL        -0.0794
      4 C4         -6.4270    1.9030   -1.2270 C.3       1 MOL        -0.0844
      5 C5         -6.0700    1.1920    0.0700 C.3       1 MOL         0.1334
      6 C6         -5.2870   -0.8450    0.9420 C.3       1 MOL         0.1304
      7 C7         -4.8110   -2.2370    0.5480 C.3       1 MOL         0.1371
      8 O1         -3.6530   -2.0990   -0.2750 O.3       1 MOL        -0.6048
      9 O2         -5.6360   -0.1270   -0.2330 O.3       1 MOL        -0.4296
     10 H1         -7.9790    3.5280   -2.8400 H         1 MOL         0.0344
     11 H2         -7.5510    5.0770   -2.0860 H         1 MOL         0.0344
     12 H3         -6.3080    4.1140   -2.9040 H         1 MOL         0.0344
     13 H4         -3.6830   -2.5620    2.3650 H         1 MOL         0.0460
     14 H5         -5.3230   -3.2430    2.4050 H         1 MOL         0.0460
     15 H6         -4.0300   -4.0370    1.4750 H         1 MOL         0.0460
     16 H7         -6.1110    3.8890   -0.4370 H         1 MOL         0.0392
     17 H8         -7.7830    3.3330   -0.3410 H         1 MOL         0.0392
     18 H9         -7.2090    1.3370   -1.7480 H         1 MOL         0.0542
     19 H10        -5.5570    1.8970   -1.8960 H         1 MOL         0.0542
     20 H11        -5.2620    1.7130    0.5930 H         1 MOL         0.0267
     21 H12        -6.9400    1.1270    0.7330 H         1 MOL         0.0267
     22 H13        -6.1750   -0.8960    1.5810 H         1 MOL         0.0412
     23 H14        -4.4970   -0.2900    1.4580 H         1 MOL         0.0412
     24 H15        -5.5780   -2.7440   -0.0480 H         1 MOL         0.0517
     25 H16        -3.3860   -2.9950   -0.5270 H         1 MOL         0.4030
@<TRIPOS>BOND
     1    1    3 1
     2    2    7 1
     3    3    4 1
     4    4    5 1
     5    5    9 1
     6    6    7 1
     7    6    9 1
     8    7    8 1
     9    1   10 1
    10    1   11 1
    11    1   12 1
    12    2   13 1
    13    2   14 1
    14    2   15 1
    15    3   16 1
    16    3   17 1
    17    4   18 1
    18    4   19 1
    19    5   20 1
    20    5   21 1
    21    6   22 1
    22    6   23 1
    23    7   24 1
    24    8   25 1
