@<TRIPOS>MOLECULE
SAMPL4_047
   33    35     0     0     0
SMALL
USER_CHARGES

@<TRIPOS>ATOM
      1 C1          0.9970   -0.5960    0.1390 C.ar      1 MOL        -0.1200
      2 C2          1.4420   -1.8150   -0.3660 C.ar      1 MOL        -0.1170
      3 C3          7.2800    0.1160    3.9580 C.ar      1 MOL        -0.0740
      4 C4          1.8000    0.1330    1.0160 C.ar      1 MOL        -0.0860
      5 C5          2.6920   -2.3120    0.0040 C.ar      1 MOL        -0.0890
      6 C6          6.0300    0.6120    3.5870 C.ar      1 MOL        -0.1410
      7 C7          7.7250   -1.1040    3.4520 C.ar      1 MOL        -0.1950
      8 C8          3.0550   -0.3610    1.3910 C.ar      1 MOL        -0.1306
      9 C9          3.5010   -1.5840    0.8840 C.ar      1 MOL        -0.1246
     10 C10         5.2210   -0.1160    2.7070 C.ar      1 MOL        -0.0866
     11 C11         5.6670   -1.3380    2.2000 C.ar      1 MOL        -0.2076
     12 C12         6.9220   -1.8330    2.5750 C.ar      1 MOL         0.2286
     13 C13         3.8980    0.4170    2.3200 C.2       1 MOL         0.5823
     14 C14         4.8230   -2.1170    1.2710 C.2       1 MOL         0.6013
     15 C15         8.7230   -3.5570    2.4910 C.3       1 MOL         0.1958
     16 C16         8.9950   -4.8730    1.7840 C.3       1 MOL         0.1194
     17 N1          7.4410   -3.0610    2.1040 N.pl3     1 MOL        -0.7436
     18 O1          3.5070    1.4900    2.7650 O.2       1 MOL        -0.5221
     19 O2          5.1810   -3.1920    0.8060 O.2       1 MOL        -0.5531
     20 O3          8.0140   -5.8270    2.1710 O.3       1 MOL        -0.6008
     21 H1          0.0230   -0.2110   -0.1510 H         1 MOL         0.1400
     22 H2          0.8150   -2.3810   -1.0490 H         1 MOL         0.1400
     23 H3          7.9070    0.6810    4.6410 H         1 MOL         0.1380
     24 H4          1.4300    1.0820    1.3960 H         1 MOL         0.1570
     25 H5          3.0140   -3.2660   -0.4050 H         1 MOL         0.1570
     26 H6          5.7060    1.5660    3.9950 H         1 MOL         0.1590
     27 H7          8.7020   -1.4760    3.7520 H         1 MOL         0.1380
     28 H8          8.7290   -3.6830    3.5790 H         1 MOL         0.0492
     29 H9          9.4760   -2.8130    2.2120 H         1 MOL         0.0492
     30 H10         9.9760   -5.2600    2.0760 H         1 MOL         0.0362
     31 H11         8.9650   -4.7590    0.6960 H         1 MOL         0.0362
     32 H12         6.8650   -3.5820    1.4730 H         1 MOL         0.4548
     33 H13         8.2230   -6.6490    1.6990 H         1 MOL         0.4070
@<TRIPOS>BOND
     1    1    2 ar
     2    1    4 ar
     3    2    5 ar
     4    3    6 ar
     5    3    7 ar
     6    4    8 ar
     7    5    9 ar
     8    6   10 ar
     9    7   12 ar
    10    8    9 ar
    11    8   13 1
    12    9   14 1
    13   10   11 ar
    14   10   13 1
    15   11   12 ar
    16   11   14 1
    17   12   17 1
    18   13   18 2
    19   14   19 2
    20   15   16 1
    21   15   17 1
    22   16   20 1
    23    1   21 1
    24    2   22 1
    25    3   23 1
    26    4   24 1
    27    5   25 1
    28    6   26 1
    29    7   27 1
    30   15   28 1
    31   15   29 1
    32   16   30 1
    33   16   31 1
    34   17   32 1
    35   20   33 1
