@<TRIPOS>MOLECULE
m_xylene
   18    18     0     0     0
SMALL
USER_CHARGES

@<TRIPOS>ATOM
      1 C1          0.8324   -0.3948    0.5751 C.ar      1 MOL        -0.1235
      2 C2          1.8991   -1.0135   -0.0768 C.ar      1 MOL        -0.1352
      3 C3          0.8349   -0.2829    1.9655 C.ar      1 MOL        -0.1352
      4 C4          2.9708   -1.4085    2.0522 C.ar      1 MOL        -0.1315
      5 C5          2.9683   -1.5204    0.6618 C.ar      1 MOL        -0.0643
      6 C6          1.9042   -0.7896    2.7040 C.ar      1 MOL        -0.0643
      7 C7          4.1091   -2.1808   -0.0358 C.3       1 MOL        -0.0602
      8 C8          1.9062   -0.6713    4.1907 C.3       1 MOL        -0.0602
      9 H1         -0.0002   -0.0005    0.0000 H         1 MOL         0.1294
     10 H2          1.8884   -1.0964   -1.1602 H         1 MOL         0.1299
     11 H3         -0.0005    0.2005    2.4647 H         1 MOL         0.1299
     12 H4          3.8041   -1.8044    2.6283 H         1 MOL         0.1300
     13 H5          4.8781   -2.4787    0.6874 H         1 MOL         0.0425
     14 H6          3.7793   -3.0746   -0.5810 H         1 MOL         0.0425
     15 H7          4.5671   -1.5095   -0.7740 H         1 MOL         0.0425
     16 H8          2.8209   -0.1720    4.5329 H         1 MOL         0.0425
     17 H9          1.0418   -0.0952    4.5457 H         1 MOL         0.0425
     18 H10         1.8484   -1.6578    4.6690 H         1 MOL         0.0425
@<TRIPOS>BOND
     1    1    2 ar
     2    1    3 ar
     3    2    5 ar
     4    3    6 ar
     5    4    5 ar
     6    4    6 ar
     7    5    7 1
     8    6    8 1
     9    1    9 1
    10    2   10 1
    11    3   11 1
    12    4   12 1
    13    7   13 1
    14    7   14 1
    15    7   15 1
    16    8   16 1
    17    8   17 1
    18    8   18 1
