@<TRIPOS>MOLECULE
1245_tetrachlorobenzene
   12    12     0     0     0
SMALL
USER_CHARGES

@<TRIPOS>ATOM
      1 C1          0.8324   -0.3948    0.5751 C.ar      1 MOL        -0.1079
      2 C2          2.9708   -1.4085    2.0522 C.ar      1 MOL        -0.1079
      3 C3          1.8991   -1.0135   -0.0768 C.ar      1 MOL         0.0224
      4 C4          0.8349   -0.2829    1.9655 C.ar      1 MOL         0.0224
      5 C5          2.9683   -1.5204    0.6618 C.ar      1 MOL         0.0224
      6 C6          1.9042   -0.7896    2.7040 C.ar      1 MOL         0.0224
      7 Cl1         1.8396   -1.1201   -1.8013 Cl        1 MOL        -0.0534
      8 Cl2        -0.5146    0.4950    2.7157 Cl        1 MOL        -0.0534
      9 Cl3         4.3194   -2.2960   -0.0880 Cl        1 MOL        -0.0534
     10 Cl4         1.9641   -0.6815    4.4285 Cl        1 MOL        -0.0534
     11 H1         -0.0013    0.0007   -0.0016 H         1 MOL         0.1698
     12 H2          3.8053   -1.8038    2.6283 H         1 MOL         0.1698
@<TRIPOS>BOND
     1    1    3 ar
     2    1    4 ar
     3    2    5 ar
     4    2    6 ar
     5    3    5 ar
     6    3    7 1
     7    4    6 ar
     8    4    8 1
     9    5    9 1
    10    6   10 1
    11    1   11 1
    12    2   12 1
