@<TRIPOS>MOLECULE
methyl_trimethylacetate
   20    19     0     0     0
SMALL
USER_CHARGES

@<TRIPOS>ATOM
      1 C1          2.9196   -1.5216    1.0965 C.2       1 MOL         0.6305
      2 C2          0.7043   -0.4120    0.7314 C.3       1 MOL        -0.0862
      3 C3          2.5939    0.0304   -0.8446 C.3       1 MOL        -0.0862
      4 C4          1.4943   -2.2146   -0.8431 C.3       1 MOL        -0.0862
      5 C5          3.1760   -2.9928    2.9354 C.3       1 MOL         0.1271
      6 C6          1.9238   -1.0345    0.0387 C.3       1 MOL        -0.0849
      7 O1          4.0726   -1.1204    1.1996 O.2       1 MOL        -0.5383
      8 O2          2.3401   -2.4606    1.9028 O.3       1 MOL        -0.4358
      9 H1          1.0054    0.3984    1.4052 H         1 MOL         0.0461
     10 H2          0.0000    0.0000   -0.0000 H         1 MOL         0.0461
     11 H3          0.1615   -1.1493    1.3334 H         1 MOL         0.0461
     12 H4          2.9232    0.8903   -0.2497 H         1 MOL         0.0461
     13 H5          1.9063    0.3997   -1.6138 H         1 MOL         0.0461
     14 H6          3.4777   -0.3733   -1.3522 H         1 MOL         0.0461
     15 H7          0.9620   -2.9785   -0.2651 H         1 MOL         0.0461
     16 H8          0.8279   -1.8861   -1.6484 H         1 MOL         0.0461
     17 H9          2.3638   -2.7012   -1.3002 H         1 MOL         0.0461
     18 H10         4.1360   -2.4708    2.9334 H         1 MOL         0.0486
     19 H11         3.3299   -4.0615    2.7662 H         1 MOL         0.0486
     20 H12         2.6859   -2.8456    3.9007 H         1 MOL         0.0486
@<TRIPOS>BOND
     1    1    6 1
     2    1    7 2
     3    1    8 1
     4    2    6 1
     5    3    6 1
     6    4    6 1
     7    5    8 1
     8    2    9 1
     9    2   10 1
    10    2   11 1
    11    3   12 1
    12    3   13 1
    13    3   14 1
    14    4   15 1
    15    4   16 1
    16    4   17 1
    17    5   18 1
    18    5   19 1
    19    5   20 1
