@<TRIPOS>MOLECULE
phenyl_methyl_sulfide
   16    16     0     0     0
SMALL
USER_CHARGES

@<TRIPOS>ATOM
      1 C1          1.8846   -1.0376   -0.1090 C.ar      1 MOL        -0.1253
      2 C2          0.8176   -0.4410    0.5626 C.ar      1 MOL        -0.1264
      3 C3          2.9348   -1.6038    0.6137 C.ar      1 MOL        -0.1264
      4 C4          0.8008   -0.4105    1.9570 C.ar      1 MOL        -0.1119
      5 C5          2.9180   -1.5734    2.0082 C.ar      1 MOL        -0.1119
      6 C6          1.8509   -0.9767    2.6799 C.ar      1 MOL        -0.0145
      7 C7          1.7877    0.8469    4.7910 C.3       1 MOL        -0.0558
      8 S1          1.8293   -0.9375    4.4617 S.3       1 MOL        -0.1995
      9 H1          1.8979   -1.0618   -1.1946 H         1 MOL         0.1324
     10 H2          0.0005    0.0004   -0.0006 H         1 MOL         0.1331
     11 H3          3.7653   -2.0685    0.0904 H         1 MOL         0.1331
     12 H4         -0.0393    0.0592    2.4630 H         1 MOL         0.1380
     13 H5          3.7455   -2.0197    2.5544 H         1 MOL         0.1380
     14 H6          0.8621    1.2758    4.3992 H         1 MOL         0.0657
     15 H7          2.6385    1.3334    4.3076 H         1 MOL         0.0657
     16 H8          1.8373    1.0269    5.8676 H         1 MOL         0.0657
@<TRIPOS>BOND
     1    1    2 ar
     2    1    3 ar
     3    2    4 ar
     4    3    5 ar
     5    4    6 ar
     6    5    6 ar
     7    6    8 1
     8    7    8 1
     9    1    9 1
    10    2   10 1
    11    3   11 1
    12    4   12 1
    13    5   13 1
    14    7   14 1
    15    7   15 1
    16    7   16 1
