@<TRIPOS>MOLECULE
methyl_acetate
   11    10     0     0     0
SMALL
USER_CHARGES

@<TRIPOS>ATOM
      1 C1         -1.6376   -0.5840   -1.2367 C.2       1 MOL         0.6276
      2 C2         -0.9373   -0.5552    0.0879 C.3       1 MOL        -0.1453
      3 C3         -2.5912    0.8103   -2.8891 C.3       1 MOL         0.1300
      4 O1         -1.9037   -1.6095   -1.8489 O.2       1 MOL        -0.5406
      5 O2         -1.9187    0.6904   -1.6316 O.3       1 MOL        -0.4455
      6 H1         -1.5858   -0.1000    0.8405 H         1 MOL         0.0749
      7 H2          0.0000    0.0000    0.0000 H         1 MOL         0.0749
      8 H3         -0.7073   -1.5785    0.3989 H         1 MOL         0.0749
      9 H4         -1.8629    0.7407   -3.7008 H         1 MOL         0.0497
     10 H5         -3.1128    1.7697   -2.9344 H         1 MOL         0.0497
     11 H6         -3.3166   -0.0013   -2.9831 H         1 MOL         0.0497
@<TRIPOS>BOND
     1    1    2 1
     2    1    4 2
     3    1    5 1
     4    3    5 1
     5    2    6 1
     6    2    7 1
     7    2    8 1
     8    3    9 1
     9    3   10 1
    10    3   11 1
