@<TRIPOS>MOLECULE
cis_12_dimethylcyclohexane
   24    24     0     0     0
SMALL
USER_CHARGES

@<TRIPOS>ATOM
      1 C1          0.7402    0.0391    0.8075 C.3       1 MOL        -0.0727
      2 C2          0.2013    0.8940    1.9491 C.3       1 MOL        -0.0727
      3 C3          1.0623   -1.3797    1.2712 C.3       1 MOL        -0.0699
      4 C4          1.1337    0.8902    3.1576 C.3       1 MOL        -0.0699
      5 C5          2.0172   -1.4136    2.4777 C.3       1 MOL        -0.0568
      6 C6          1.4552   -0.5381    3.6246 C.3       1 MOL        -0.0568
      7 C7          3.4435   -1.0419    2.0543 C.3       1 MOL        -0.0850
      8 C8          2.3663   -0.5074    4.8525 C.3       1 MOL        -0.0850
      9 H1          0.0045    0.0030   -0.0040 H         1 MOL         0.0366
     10 H2          1.6434    0.5063    0.3966 H         1 MOL         0.0366
     11 H3          0.0535    1.9227    1.6012 H         1 MOL         0.0366
     12 H4         -0.7835    0.5161    2.2509 H         1 MOL         0.0366
     13 H5          0.1262   -1.8835    1.5449 H         1 MOL         0.0374
     14 H6          1.4908   -1.9497    0.4381 H         1 MOL         0.0374
     15 H7          2.0622    1.4162    2.9020 H         1 MOL         0.0374
     16 H8          0.6666    1.4528    3.9751 H         1 MOL         0.0374
     17 H9          2.0637   -2.4501    2.8366 H         1 MOL         0.0394
     18 H10         0.5113   -0.9953    3.9520 H         1 MOL         0.0394
     19 H11         3.7254   -0.0685    2.4666 H         1 MOL         0.0323
     20 H12         4.1581   -1.7883    2.4138 H         1 MOL         0.0323
     21 H13         3.5193   -0.9892    0.9641 H         1 MOL         0.0323
     22 H14         3.2153    0.1619    4.6844 H         1 MOL         0.0323
     23 H15         1.8170   -0.1534    5.7301 H         1 MOL         0.0323
     24 H16         2.7537   -1.5075    5.0687 H         1 MOL         0.0323
@<TRIPOS>BOND
     1    1    2 1
     2    1    3 1
     3    2    4 1
     4    3    5 1
     5    4    6 1
     6    5    6 1
     7    5    7 1
     8    6    8 1
     9    1    9 1
    10    1   10 1
    11    2   11 1
    12    2   12 1
    13    3   13 1
    14    3   14 1
    15    4   15 1
    16    4   16 1
    17    5   17 1
    18    6   18 1
    19    7   19 1
    20    7   20 1
    21    7   21 1
    22    8   22 1
    23    8   23 1
    24    8   24 1
