@<TRIPOS>MOLECULE
2_chlorobutane
   14    13     0     0     0
SMALL
USER_CHARGES

@<TRIPOS>ATOM
      1 C1         -1.7006   -2.1097   -1.3386 C.3       1 MOL        -0.0931
      2 C2         -0.9783    1.2306   -3.2091 C.3       1 MOL        -0.1008
      3 C3         -1.0182   -1.1038   -2.2565 C.3       1 MOL        -0.0850
      4 C4         -1.7156    0.2611   -2.2930 C.3       1 MOL         0.0639
      5 Cl1        -1.8144    0.9744   -0.6546 Cl        1 MOL        -0.2123
      6 H1         -1.1116   -3.0313   -1.2896 H         1 MOL         0.0381
      7 H2         -2.6994   -2.3745   -1.6975 H         1 MOL         0.0381
      8 H3         -1.7918   -1.7134   -0.3223 H         1 MOL         0.0381
      9 H4         -0.9911    0.8787   -4.2464 H         1 MOL         0.0475
     10 H5         -1.4536    2.2172   -3.1894 H         1 MOL         0.0475
     11 H6          0.0669    1.3553   -2.9054 H         1 MOL         0.0475
     12 H7         -0.9503   -1.5255   -3.2669 H         1 MOL         0.0515
     13 H8          0.0119   -0.9687   -1.9038 H         1 MOL         0.0515
     14 H9         -2.7449    0.1443   -2.6488 H         1 MOL         0.0676
@<TRIPOS>BOND
     1    1    3 1
     2    2    4 1
     3    3    4 1
     4    4    5 1
     5    1    6 1
     6    1    7 1
     7    1    8 1
     8    2    9 1
     9    2   10 1
    10    2   11 1
    11    3   12 1
    12    3   13 1
    13    4   14 1
