@<TRIPOS>MOLECULE
4_fluorophenol
   13    13     0     0     0
SMALL
USER_CHARGES

@<TRIPOS>ATOM
      1 C1          0.8178   -0.4385    0.5644 C.ar      1 MOL        -0.1612
      2 C2          2.9371   -1.5972    0.6197 C.ar      1 MOL        -0.1612
      3 C3          0.7994   -0.4058    1.9588 C.ar      1 MOL        -0.1286
      4 C4          2.9185   -1.5646    2.0141 C.ar      1 MOL        -0.1286
      5 C5          1.8867   -1.0341   -0.1051 C.ar      1 MOL         0.1114
      6 C6          1.8497   -0.9689    2.6836 C.ar      1 MOL         0.0890
      7 O1          1.9057   -1.0662   -1.4658 O.3       1 MOL        -0.4959
      8 F1          1.8324   -0.9378    4.0227 F         1 MOL        -0.1429
      9 H1         -0.0038    0.0018    0.0059 H         1 MOL         0.1477
     10 H2          3.7723   -2.0626    0.1035 H         1 MOL         0.1477
     11 H3         -0.0326    0.0575    2.4807 H         1 MOL         0.1508
     12 H4          3.7362   -2.0021    2.5792 H         1 MOL         0.1508
     13 H5          2.6765   -1.5863   -1.7576 H         1 MOL         0.4212
@<TRIPOS>BOND
     1    1    3 ar
     2    1    5 ar
     3    2    4 ar
     4    2    5 ar
     5    3    6 ar
     6    4    6 ar
     7    5    7 1
     8    6    8 1
     9    1    9 1
    10    2   10 1
    11    3   11 1
    12    4   12 1
    13    7   13 1
