@<TRIPOS>MOLECULE
ethyl_phenyl_ether
   19    19     0     0     0
SMALL
USER_CHARGES

@<TRIPOS>ATOM
      1 C1          1.8846   -1.0376   -0.1090 C.ar      1 MOL        -0.1665
      2 C2          0.8176   -0.4410    0.5626 C.ar      1 MOL        -0.0974
      3 C3          2.9348   -1.6038    0.6137 C.ar      1 MOL        -0.0974
      4 C4          0.8008   -0.4105    1.9570 C.ar      1 MOL        -0.1822
      5 C5          2.9180   -1.5734    2.0082 C.ar      1 MOL        -0.1822
      6 C6          1.8509   -0.9767    2.6799 C.ar      1 MOL         0.1290
      7 C7          1.8189    0.4351    5.9955 C.3       1 MOL        -0.1155
      8 C8          1.1678    0.1523    4.6584 C.3       1 MOL         0.1305
      9 O1          1.8342   -0.9476    4.0403 O.3       1 MOL        -0.3339
     10 H1          1.8990   -1.0598   -1.1948 H         1 MOL         0.1320
     11 H2         -0.0004   -0.0007   -0.0000 H         1 MOL         0.1314
     12 H3          3.7656   -2.0682    0.0905 H         1 MOL         0.1314
     13 H4         -0.0336    0.0549    2.4746 H         1 MOL         0.1419
     14 H5          3.7386   -2.0165    2.5657 H         1 MOL         0.1419
     15 H6          1.3311    1.2756    6.4971 H         1 MOL         0.0468
     16 H7          1.7641   -0.4445    6.6453 H         1 MOL         0.0468
     17 H8          2.8807    0.6692    5.8658 H         1 MOL         0.0468
     18 H9          1.2442    1.0245    4.0023 H         1 MOL         0.0481
     19 H10         0.1127   -0.1045    4.7917 H         1 MOL         0.0481
@<TRIPOS>BOND
     1    1    2 ar
     2    1    3 ar
     3    2    4 ar
     4    3    5 ar
     5    4    6 ar
     6    5    6 ar
     7    6    9 1
     8    7    8 1
     9    8    9 1
    10    1   10 1
    11    2   11 1
    12    3   12 1
    13    4   13 1
    14    5   14 1
    15    7   15 1
    16    7   16 1
    17    7   17 1
    18    8   18 1
    19    8   19 1
