@<TRIPOS>MOLECULE
N_methylpiperazine
   19    19     0     0     0
SMALL
USER_CHARGES

@<TRIPOS>ATOM
      1 C1         -0.3124   -0.9378    0.4727 C.3       1 MOL         0.1415
      2 C2          0.0898   -3.3035    0.5317 C.3       1 MOL         0.1415
      3 C3         -0.0739   -0.8523    1.9823 C.3       1 MOL         0.1485
      4 C4          0.3304   -3.2322    2.0417 C.3       1 MOL         0.1485
      5 C5         -0.1859   -2.0442    4.0765 C.3       1 MOL         0.1486
      6 N1          0.4337   -2.0438   -0.1317 N.3       1 MOL        -0.8067
      7 N2         -0.4223   -2.1203    2.6363 N.3       1 MOL        -0.7105
      8 H1         -1.3838   -1.0510    0.2634 H         1 MOL         0.0380
      9 H2          0.0072   -0.0002    0.0050 H         1 MOL         0.0380
     10 H3          0.7050   -4.1046    0.1072 H         1 MOL         0.0380
     11 H4         -0.9570   -3.5609    0.3257 H         1 MOL         0.0380
     12 H5          0.9747   -0.5903    2.1781 H         1 MOL         0.0452
     13 H6         -0.6945   -0.0453    2.3898 H         1 MOL         0.0452
     14 H7          0.0069   -4.1781    2.4925 H         1 MOL         0.0452
     15 H8          1.4052   -3.1245    2.2419 H         1 MOL         0.0452
     16 H9         -1.0909   -1.7207    4.5985 H         1 MOL         0.0322
     17 H10         0.6159   -1.3321    4.2905 H         1 MOL         0.0322
     18 H11         0.1109   -3.0233    4.4628 H         1 MOL         0.0322
     19 H12         0.2057   -2.1072   -1.1232 H         1 MOL         0.3596
@<TRIPOS>BOND
     1    1    3 1
     2    1    6 1
     3    2    4 1
     4    2    6 1
     5    3    7 1
     6    4    7 1
     7    5    7 1
     8    1    8 1
     9    1    9 1
    10    2   10 1
    11    2   11 1
    12    3   12 1
    13    3   13 1
    14    4   14 1
    15    4   15 1
    16    5   16 1
    17    5   17 1
    18    5   18 1
    19    6   19 1
