@<TRIPOS>MOLECULE
1-chloro-2-phenyl-benzene
   22    23     0     0     0
SMALL
USER_CHARGES

@<TRIPOS>ATOM
      1 C1          1.8851   -1.0363   -0.1124 C.ar      1 MOL        -0.1248
      2 C2          0.8066   -0.4630    0.5610 C.ar      1 MOL        -0.1323
      3 C3          2.9210   -1.6309    0.6081 C.ar      1 MOL        -0.1319
      4 C4          1.0761   -2.2471    6.1370 C.ar      1 MOL        -0.1320
      5 C5          1.6254   -1.2210    6.9058 C.ar      1 MOL        -0.1201
      6 C6          0.7638   -0.4841    1.9551 C.ar      1 MOL        -0.1081
      7 C7          2.8783   -1.6520    2.0022 C.ar      1 MOL        -0.1077
      8 C8          1.1409   -2.1869    4.7449 C.ar      1 MOL        -0.1101
      9 C9          2.2394   -0.1347    6.2825 C.ar      1 MOL        -0.1282
     10 C10         1.7997   -1.0786    2.6757 C.ar      1 MOL        -0.0482
     11 C11         1.7549   -1.1005    4.1216 C.ar      1 MOL        -0.0348
     12 C12         2.3042   -0.0744    4.8904 C.ar      1 MOL         0.0298
     13 Cl1         3.0771    1.2958    4.1717 Cl        1 MOL        -0.0864
     14 H1          1.9174   -1.0212   -1.1979 H         1 MOL         0.1304
     15 H2         -0.0009   -0.0015    0.0001 H         1 MOL         0.1325
     16 H3          3.7605   -2.0787    0.0844 H         1 MOL         0.1332
     17 H4          0.5981   -3.0929    6.6225 H         1 MOL         0.1364
     18 H5          1.5749   -1.2681    7.9897 H         1 MOL         0.1368
     19 H6         -0.0840   -0.0332    2.4655 H         1 MOL         0.1383
     20 H7          3.6927   -2.1196    2.5504 H         1 MOL         0.1377
     21 H8          0.7073   -2.9959    4.1616 H         1 MOL         0.1427
     22 H9          2.6623    0.6562    6.8969 H         1 MOL         0.1469
@<TRIPOS>BOND
     1    1    2 ar
     2    1    3 ar
     3    2    6 ar
     4    3    7 ar
     5    4    5 ar
     6    4    8 ar
     7    5    9 ar
     8    6   10 ar
     9    7   10 ar
    10    8   11 ar
    11    9   12 ar
    12   10   11 1
    13   11   12 ar
    14   12   13 1
    15    1   14 1
    16    2   15 1
    17    3   16 1
    18    4   17 1
    19    5   18 1
    20    6   19 1
    21    7   20 1
    22    8   21 1
    23    9   22 1
