@<TRIPOS>MOLECULE
2_chlorotoluene
   15    15     0     0     0
SMALL
USER_CHARGES

@<TRIPOS>ATOM
      1 C1          1.8846   -1.0376   -0.1090 C.ar      1 MOL        -0.1256
      2 C2          0.8176   -0.4410    0.5626 C.ar      1 MOL        -0.1274
      3 C3          2.9348   -1.6038    0.6137 C.ar      1 MOL        -0.1241
      4 C4          0.8008   -0.4105    1.9570 C.ar      1 MOL        -0.1211
      5 C5          2.9180   -1.5734    2.0082 C.ar      1 MOL        -0.0566
      6 C6          1.8509   -0.9767    2.6799 C.ar      1 MOL         0.0144
      7 C7          4.0622   -2.1906    2.7455 C.3       1 MOL        -0.0629
      8 Cl1         1.7954   -0.9200    4.4041 Cl        1 MOL        -0.0991
      9 H1          1.8976   -1.0612   -1.1947 H         1 MOL         0.1347
     10 H2          0.0001   -0.0002   -0.0003 H         1 MOL         0.1364
     11 H3          3.7613   -2.0660    0.0803 H         1 MOL         0.1360
     12 H4         -0.0381    0.0584    2.4652 H         1 MOL         0.1458
     13 H5          4.5645   -1.4381    3.3636 H         1 MOL         0.0499
     14 H6          3.7206   -3.0060    3.3943 H         1 MOL         0.0499
     15 H7          4.7945   -2.6195    2.0509 H         1 MOL         0.0499
@<TRIPOS>BOND
     1    1    2 ar
     2    1    3 ar
     3    2    4 ar
     4    3    5 ar
     5    4    6 ar
     6    5    6 ar
     7    5    7 1
     8    6    8 1
     9    1    9 1
    10    2   10 1
    11    3   11 1
    12    4   12 1
    13    7   13 1
    14    7   14 1
    15    7   15 1
