@<TRIPOS>MOLECULE
n_pentylcyclopentane
   30    30     0     0     0
SMALL
USER_CHARGES

@<TRIPOS>ATOM
      1 C1         -1.8763   -0.8503   -1.3328 C.3       1 MOL        -0.0797
      2 C2         -0.9663   -1.9682   -0.8209 C.3       1 MOL        -0.0797
      3 C3         -1.4103   -0.5405   -2.7521 C.3       1 MOL        -0.0771
      4 C4         -0.0087   -2.2898   -1.9636 C.3       1 MOL        -0.0771
      5 C5          0.0448   -0.9981   -2.7731 C.3       1 MOL        -0.0697
      6 C6          1.6445    1.0177   -8.5869 C.3       1 MOL        -0.0896
      7 C7          0.5910   -1.1933   -4.1767 C.3       1 MOL        -0.0686
      8 C8          1.0975    1.2142   -7.1821 C.3       1 MOL        -0.0776
      9 C9          0.5686    0.1113   -4.9728 C.3       1 MOL        -0.0762
     10 C10         1.1506   -0.0821   -6.3740 C.3       1 MOL        -0.0768
     11 H1         -2.9309   -1.1440   -1.3165 H         1 MOL         0.0392
     12 H2         -1.7720    0.0345   -0.6947 H         1 MOL         0.0392
     13 H3         -0.4083   -1.6197    0.0561 H         1 MOL         0.0392
     14 H4         -1.5364   -2.8520   -0.5173 H         1 MOL         0.0392
     15 H5         -2.0075   -1.1134   -3.4725 H         1 MOL         0.0414
     16 H6         -1.5175    0.5208   -2.9963 H         1 MOL         0.0414
     17 H7          0.9770   -2.5958   -1.5997 H         1 MOL         0.0414
     18 H8         -0.4143   -3.1102   -2.5684 H         1 MOL         0.0414
     19 H9          0.6679   -0.2626   -2.2491 H         1 MOL         0.0501
     20 H10         2.6887    0.6903   -8.5592 H         1 MOL         0.0313
     21 H11         1.5977    1.9570   -9.1468 H         1 MOL         0.0313
     22 H12         1.0633    0.2676   -9.1327 H         1 MOL         0.0313
     23 H13        -0.0062   -1.9545   -4.6920 H         1 MOL         0.0388
     24 H14         1.6171   -1.5736   -4.1135 H         1 MOL         0.0388
     25 H15         0.0631    1.5713   -7.2459 H         1 MOL         0.0371
     26 H16         1.6790    1.9931   -6.6754 H         1 MOL         0.0371
     27 H17        -0.4626    0.4767   -5.0504 H         1 MOL         0.0392
     28 H18         1.1435    0.8775   -4.4387 H         1 MOL         0.0392
     29 H19         2.1899   -0.4242   -6.2962 H         1 MOL         0.0377
     30 H20         0.5911   -0.8658   -6.8994 H         1 MOL         0.0377
@<TRIPOS>BOND
     1    1    2 1
     2    1    3 1
     3    2    4 1
     4    3    5 1
     5    4    5 1
     6    5    7 1
     7    6    8 1
     8    7    9 1
     9    8   10 1
    10    9   10 1
    11    1   11 1
    12    1   12 1
    13    2   13 1
    14    2   14 1
    15    3   15 1
    16    3   16 1
    17    4   17 1
    18    4   18 1
    19    5   19 1
    20    6   20 1
    21    6   21 1
    22    6   22 1
    23    7   23 1
    24    7   24 1
    25    8   25 1
    26    8   26 1
    27    9   27 1
    28    9   28 1
    29   10   29 1
    30   10   30 1
