@<TRIPOS>MOLECULE
n_hexylbenzene
   30    30     0     0     0
SMALL
USER_CHARGES

@<TRIPOS>ATOM
      1 C1         -8.0343   -1.1017   -5.8352 C.ar      1 MOL        -0.1338
      2 C2         -6.9148   -1.7231   -6.3884 C.ar      1 MOL        -0.1283
      3 C3         -7.8804    0.0368   -5.0441 C.ar      1 MOL        -0.1283
      4 C4         -5.6413   -1.2061   -6.1505 C.ar      1 MOL        -0.1283
      5 C5         -6.6069    0.5540   -4.8062 C.ar      1 MOL        -0.1283
      6 C6         -5.5017   -0.0733   -5.3622 C.ar      1 MOL        -0.0657
      7 C7          0.5400   -0.1432   -0.8205 C.3       1 MOL        -0.0896
      8 C8         -4.1256    0.4851   -5.1050 C.3       1 MOL        -0.0451
      9 C9         -0.0664    0.4089   -2.1006 C.3       1 MOL        -0.0774
     10 C10        -3.4929   -0.1250   -3.8524 C.3       1 MOL        -0.0713
     11 C11        -1.4621   -0.1620   -2.3505 C.3       1 MOL        -0.0761
     12 C12        -2.0828    0.4214   -3.6208 C.3       1 MOL        -0.0783
     13 H1         -9.0259   -1.5044   -6.0202 H         1 MOL         0.1299
     14 H2         -7.0347   -2.6098   -7.0040 H         1 MOL         0.1297
     15 H3         -8.7522    0.5205   -4.6134 H         1 MOL         0.1297
     16 H4         -4.7748   -1.6971   -6.5855 H         1 MOL         0.1304
     17 H5         -6.4966    1.4415   -4.1888 H         1 MOL         0.1304
     18 H6          1.5384    0.2764   -0.6621 H         1 MOL         0.0314
     19 H7         -0.0769    0.1114    0.0472 H         1 MOL         0.0314
     20 H8          0.6330   -1.2328   -0.8684 H         1 MOL         0.0314
     21 H9         -4.1883    1.5760   -5.0042 H         1 MOL         0.0463
     22 H10        -3.4885    0.2999   -5.9792 H         1 MOL         0.0463
     23 H11         0.5913    0.1669   -2.9436 H         1 MOL         0.0372
     24 H12        -0.1175    1.5019   -2.0321 H         1 MOL         0.0372
     25 H13        -4.1182    0.0900   -2.9765 H         1 MOL         0.0403
     26 H14        -3.4515   -1.2173   -3.9499 H         1 MOL         0.0403
     27 H15        -1.4019   -1.2537   -2.4384 H         1 MOL         0.0373
     28 H16        -2.1082    0.0577   -1.4918 H         1 MOL         0.0373
     29 H17        -1.4494    0.1809   -4.4834 H         1 MOL         0.0419
     30 H18        -2.1212    1.5147   -3.5417 H         1 MOL         0.0419
@<TRIPOS>BOND
     1    1    2 ar
     2    1    3 ar
     3    2    4 ar
     4    3    5 ar
     5    4    6 ar
     6    5    6 ar
     7    6    8 1
     8    7    9 1
     9    8   10 1
    10    9   11 1
    11   10   12 1
    12   11   12 1
    13    1   13 1
    14    2   14 1
    15    3   15 1
    16    4   16 1
    17    5   17 1
    18    7   18 1
    19    7   19 1
    20    7   20 1
    21    8   21 1
    22    8   22 1
    23    9   23 1
    24    9   24 1
    25   10   25 1
    26   10   26 1
    27   11   27 1
    28   11   28 1
    29   12   29 1
    30   12   30 1
