@<TRIPOS>MOLECULE
morpholine
   15    15     0     0     0
SMALL
USER_CHARGES

@<TRIPOS>ATOM
      1 C1          1.0249   -0.3810    0.0561 C.3       1 MOL         0.1198
      2 C2          2.4946   -2.1399   -0.6472 C.3       1 MOL         0.1198
      3 C3          1.9946    0.6358   -0.5350 C.3       1 MOL         0.1053
      4 C4          3.4375   -1.0908   -1.2254 C.3       1 MOL         0.1053
      5 N1          1.1099   -1.6577   -0.6600 N.3       1 MOL        -0.8034
      6 O1          3.3303    0.1303   -0.4913 O.3       1 MOL        -0.4158
      7 H1          1.2540   -0.5448    1.1162 H         1 MOL         0.0514
      8 H2          0.0016    0.0030   -0.0071 H         1 MOL         0.0514
      9 H3          2.5623   -3.0620   -1.2333 H         1 MOL         0.0514
     10 H4          2.7852   -2.3776    0.3833 H         1 MOL         0.0514
     11 H5          1.7340    0.8885   -1.5700 H         1 MOL         0.0518
     12 H6          1.9690    1.5610    0.0493 H         1 MOL         0.0518
     13 H7          4.4734   -1.4361   -1.1486 H         1 MOL         0.0518
     14 H8          3.2286   -0.8992   -2.2849 H         1 MOL         0.0518
     15 H9          0.5069   -2.3431   -0.2064 H         1 MOL         0.3557
@<TRIPOS>BOND
     1    1    3 1
     2    1    5 1
     3    2    4 1
     4    2    5 1
     5    3    6 1
     6    4    6 1
     7    1    7 1
     8    1    8 1
     9    2    9 1
    10    2   10 1
    11    3   11 1
    12    3   12 1
    13    4   13 1
    14    4   14 1
    15    5   15 1
