@<TRIPOS>MOLECULE
ibuprofen
   33    33     0     0     0
SMALL
USER_CHARGES

@<TRIPOS>ATOM
      1 C1         -0.6110    2.1910   -0.8100 C.ar      1 MOL        -0.1316
      2 C2         -2.5150    3.1790    0.3010 C.ar      1 MOL        -0.1289
      3 C3         -1.1620    2.5210   -2.0480 C.ar      1 MOL        -0.1132
      4 C4         -3.0660    3.5090   -0.9370 C.ar      1 MOL        -0.1102
      5 C5         -1.2870    2.5200    0.3650 C.ar      1 MOL        -0.0656
      6 C6         -2.3900    3.1800   -2.1110 C.ar      1 MOL        -0.1002
      7 C7         -4.3140    2.8250   -3.6930 C.2       1 MOL         0.6410
      8 C8         -3.1670    5.0500   -3.6450 C.3       1 MOL        -0.0908
      9 C9         -0.6890   -0.3470    1.2670 C.3       1 MOL        -0.0923
     10 C10        -0.4950    0.5290    3.6040 C.3       1 MOL        -0.0916
     11 C11        -0.6900    2.1630    1.7040 C.3       1 MOL        -0.0376
     12 C12        -2.9790    3.5340   -3.4350 C.3       1 MOL        -0.0551
     13 C13        -1.1090    0.7730    2.2230 C.3       1 MOL        -0.0642
     14 O1         -4.8600    2.0690   -2.9000 O.2       1 MOL        -0.5515
     15 O2         -4.8420    3.1110   -4.9130 O.3       1 MOL        -0.6071
     16 H1          0.3460    1.6770   -0.7700 H         1 MOL         0.1340
     17 H2         -3.0490    3.4390    1.2120 H         1 MOL         0.1357
     18 H3         -0.6280    2.2620   -2.9580 H         1 MOL         0.1326
     19 H4         -4.0230    4.0220   -0.9770 H         1 MOL         0.1520
     20 H5         -3.8370    5.4820   -2.8940 H         1 MOL         0.0574
     21 H6         -2.2040    5.5690   -3.5840 H         1 MOL         0.0523
     22 H7         -3.6050    5.2740   -4.6250 H         1 MOL         0.0438
     23 H8          0.3970   -0.3570    1.1210 H         1 MOL         0.0314
     24 H9         -1.1630   -0.2340    0.2880 H         1 MOL         0.0411
     25 H10        -0.9850   -1.3240    1.6620 H         1 MOL         0.0349
     26 H11         0.5980    0.5550    3.5540 H         1 MOL         0.0338
     27 H12        -0.8210    1.2880    4.3230 H         1 MOL         0.0328
     28 H13        -0.7870   -0.4530    3.9910 H         1 MOL         0.0365
     29 H14         0.4050    2.2280    1.6540 H         1 MOL         0.0490
     30 H15        -0.9980    2.9350    2.4220 H         1 MOL         0.0504
     31 H16        -2.2940    3.1890   -4.2340 H         1 MOL         0.0862
     32 H17        -2.2000    0.7360    2.3310 H         1 MOL         0.0522
     33 H18        -5.6940    2.6690   -5.1150 H         1 MOL         0.4429
@<TRIPOS>BOND
     1    1    3 ar
     2    1    5 ar
     3    2    4 ar
     4    2    5 ar
     5    3    6 ar
     6    4    6 ar
     7    5   11 1
     8    6   12 1
     9    7   12 1
    10    7   14 2
    11    7   15 1
    12    8   12 1
    13    9   13 1
    14   10   13 1
    15   11   13 1
    16    1   16 1
    17    2   17 1
    18    3   18 1
    19    4   19 1
    20    8   20 1
    21    8   21 1
    22    8   22 1
    23    9   23 1
    24    9   24 1
    25    9   25 1
    26   10   26 1
    27   10   27 1
    28   10   28 1
    29   11   29 1
    30   11   30 1
    31   12   31 1
    32   13   32 1
    33   15   33 1
