@<TRIPOS>MOLECULE
AAB
   12    12     0     0     0
SMALL
USER_CHARGES

@<TRIPOS>ATOM
      1 C1         25.8790    5.1590    4.4080 C.ar      1 MOL        -0.1301
      2 C2         26.7720    5.6590    3.4520 C.ar      1 MOL        -0.1301
      3 C3         25.8730    5.6880    5.7040 C.ar      1 MOL        -0.1301
      4 C4         27.6580    6.6900    3.7930 C.ar      1 MOL        -0.1301
      5 C5         26.7580    6.7190    6.0450 C.ar      1 MOL        -0.1301
      6 C6         27.6510    7.2190    5.0890 C.ar      1 MOL        -0.1301
      7 H1         25.2080    4.3790    4.1500 H         1 MOL         0.1301
      8 H2         26.7780    5.2580    2.4690 H         1 MOL         0.1301
      9 H3         25.1960    5.3100    6.4280 H         1 MOL         0.1301
     10 H4         28.3350    7.0680    3.0690 H         1 MOL         0.1301
     11 H5         26.7520    7.1200    7.0280 H         1 MOL         0.1301
     12 H6         28.3220    7.9990    5.3470 H         1 MOL         0.1301
@<TRIPOS>BOND
     1    1    2 ar
     2    1    3 ar
     3    1    7 1
     4    2    4 ar
     5    2    8 1
     6    3    5 ar
     7    3    9 1
     8    4    6 ar
     9    4   10 1
    10    5    6 ar
    11    5   11 1
    12    6   12 1
