@<TRIPOS>MOLECULE
benzotrifluoride
   15    15     0     0     0
SMALL
USER_CHARGES

@<TRIPOS>ATOM
      1 C1          1.8846   -1.0376   -0.1090 C.ar      1 MOL        -0.1002
      2 C2          0.8176   -0.4410    0.5626 C.ar      1 MOL        -0.1342
      3 C3          2.9348   -1.6038    0.6137 C.ar      1 MOL        -0.1342
      4 C4          0.8008   -0.4105    1.9570 C.ar      1 MOL        -0.0814
      5 C5          2.9180   -1.5734    2.0082 C.ar      1 MOL        -0.0814
      6 C6          1.8509   -0.9767    2.6799 C.ar      1 MOL        -0.1591
      7 C7          1.8328   -0.9437    4.1709 C.3       1 MOL         0.6945
      8 F1          0.7296   -0.3291    4.6916 F         1 MOL        -0.2433
      9 F2          1.8543   -2.1827    4.7455 F         1 MOL        -0.2433
     10 F3          2.9036   -0.2787    4.6944 F         1 MOL        -0.2433
     11 H1          1.8979   -1.0612   -1.1948 H         1 MOL         0.1393
     12 H2          0.0002    0.0000   -0.0002 H         1 MOL         0.1422
     13 H3          3.7655   -2.0682    0.0906 H         1 MOL         0.1422
     14 H4         -0.0347    0.0567    2.4718 H         1 MOL         0.1511
     15 H5          3.7404   -2.0171    2.5631 H         1 MOL         0.1511
@<TRIPOS>BOND
     1    1    2 ar
     2    1    3 ar
     3    2    4 ar
     4    3    5 ar
     5    4    6 ar
     6    5    6 ar
     7    6    7 1
     8    7    8 1
     9    7    9 1
    10    7   10 1
    11    1   11 1
    12    2   12 1
    13    3   13 1
    14    4   14 1
    15    5   15 1
