@<TRIPOS>MOLECULE
propyne
    7     6     0     0     0
SMALL
USER_CHARGES

@<TRIPOS>ATOM
      1 C1         -0.5942    3.0237   -0.9302 C.1       1 MOL        -0.1636
      2 C2         -0.6484    1.8276   -0.8449 C.1       1 MOL        -0.1331
      3 C3         -0.7150    0.3705   -0.7408 C.3       1 MOL        -0.0264
      4 H1         -0.5459    4.0849   -1.0060 H         1 MOL         0.1631
      5 H2          0.0000    0.0000    0.0000 H         1 MOL         0.0533
      6 H3         -1.7155    0.0471   -0.4382 H         1 MOL         0.0533
      7 H4         -0.4825   -0.0996   -1.7011 H         1 MOL         0.0533
@<TRIPOS>BOND
     1    1    2 3
     2    2    3 1
     3    1    4 1
     4    3    5 1
     5    3    6 1
     6    3    7 1
