@<TRIPOS>MOLECULE
trimethoxymethylbenzene
   27    27     0     0     0
SMALL
USER_CHARGES

@<TRIPOS>ATOM
      1 C1         -1.5328    4.0882   -3.2317 C.ar      1 MOL        -0.1137
      2 C2         -1.3303    2.7194   -3.0573 C.ar      1 MOL        -0.1427
      3 C3         -1.4263    4.9535   -2.1428 C.ar      1 MOL        -0.1427
      4 C4         -1.0213    2.2155   -1.7938 C.ar      1 MOL        -0.0920
      5 C5         -1.1172    4.4497   -0.8793 C.ar      1 MOL        -0.0920
      6 C6         -0.9242    3.0962   -0.7437 C.ar      1 MOL        -0.1081
      7 C7          1.7957    2.7093    0.1682 C.3       1 MOL         0.1303
      8 C8         -2.9016    2.2163    1.2138 C.3       1 MOL         0.1303
      9 C9         -0.1139    3.3276    2.9008 C.3       1 MOL         0.1303
     10 C10        -0.5845    2.5417    0.6462 C.3       1 MOL         0.5650
     11 O1          0.7053    1.8843    0.5666 O.3       1 MOL        -0.4438
     12 O2         -1.6075    1.6330    1.1030 O.3       1 MOL        -0.4438
     13 O3         -0.4333    3.6623    1.5538 O.3       1 MOL        -0.4438
     14 H1         -1.7735    4.4806   -4.2155 H         1 MOL         0.1325
     15 H2         -1.4135    2.0457   -3.9051 H         1 MOL         0.1345
     16 H3         -1.5841    6.0194   -2.2789 H         1 MOL         0.1345
     17 H4         -0.8653    1.1474   -1.6673 H         1 MOL         0.1487
     18 H5         -1.0361    5.1313   -0.0367 H         1 MOL         0.1487
     19 H6          2.7298    2.2889    0.5487 H         1 MOL         0.0409
     20 H7          1.6519    3.7193    0.5603 H         1 MOL         0.0409
     21 H8          1.8333    2.7463   -0.9231 H         1 MOL         0.0409
     22 H9         -2.8235    3.3010    1.1074 H         1 MOL         0.0409
     23 H10        -3.3334    1.9650    2.1858 H         1 MOL         0.0409
     24 H11        -3.5394    1.8196    0.4204 H         1 MOL         0.0409
     25 H12         0.9213    3.6075    3.1108 H         1 MOL         0.0409
     26 H13        -0.2502    2.2539    3.0525 H         1 MOL         0.0409
     27 H14        -0.7803    3.8758    3.5709 H         1 MOL         0.0409
@<TRIPOS>BOND
     1    1    2 ar
     2    1    3 ar
     3    2    4 ar
     4    3    5 ar
     5    4    6 ar
     6    5    6 ar
     7    6   10 1
     8    7   11 1
     9    8   12 1
    10    9   13 1
    11   10   11 1
    12   10   12 1
    13   10   13 1
    14    1   14 1
    15    2   15 1
    16    3   16 1
    17    4   17 1
    18    5   18 1
    19    7   19 1
    20    7   20 1
    21    7   21 1
    22    8   22 1
    23    8   23 1
    24    8   24 1
    25    9   25 1
    26    9   26 1
    27    9   27 1
