@<TRIPOS>MOLECULE
penta_14_diene
   13    12     0     0     0
SMALL
USER_CHARGES

@<TRIPOS>ATOM
      1 C1          0.8530    0.0539    0.6709 C.2       1 MOL        -0.2216
      2 C2         -2.2215    0.9863    3.6002 C.2       1 MOL        -0.2216
      3 C3          0.7206   -0.1616    1.9847 C.2       1 MOL        -0.1628
      4 C4         -1.0349    0.3707    3.6572 C.2       1 MOL        -0.1628
      5 C5         -0.5524   -0.6158    2.6355 C.3       1 MOL        -0.0202
      6 H1          1.8036    0.3763    0.2602 H         1 MOL         0.1116
      7 H2          0.0234   -0.0848   -0.0134 H         1 MOL         0.1116
      8 H3         -2.5151    1.6855    4.3755 H         1 MOL         0.1116
      9 H4         -2.9156    0.8070    2.7866 H         1 MOL         0.1116
     10 H5          1.5871   -0.0129    2.6246 H         1 MOL         0.1198
     11 H6         -0.3804    0.5832    4.4990 H         1 MOL         0.1198
     12 H7         -0.3673   -1.5743    3.1348 H         1 MOL         0.0516
     13 H8         -1.3274   -0.8044    1.8821 H         1 MOL         0.0516
@<TRIPOS>BOND
     1    1    3 2
     2    2    4 2
     3    3    5 1
     4    4    5 1
     5    1    6 1
     6    1    7 1
     7    2    8 1
     8    2    9 1
     9    3   10 1
    10    4   11 1
    11    5   12 1
    12    5   13 1
