@<TRIPOS>MOLECULE
CUP08019_AM1BCC_v1_0
   34    34     0     0     0
SMALL
USER_CHARGES

@<TRIPOS>ATOM
      1 C1         -0.1056    0.1258    2.3364 C.ar      1 MOL        -0.0802
      2 C2         -1.2752    0.1242    3.1002 C.ar      1 MOL        -0.1297
      3 C3         -2.5458   -0.5617    1.1591 C.ar      1 MOL        -0.1292
      4 C4         -0.1427   -0.2115    0.9733 C.ar      1 MOL        -0.0468
      5 C5         -2.4882   -0.2184    2.5074 C.ar      1 MOL         0.0362
      6 C6         -1.3759   -0.5600    0.3942 C.ar      1 MOL         0.0590
      7 C7          1.7187    0.9207   -0.2060 C.2       1 MOL        -0.1647
      8 C8          1.1131   -0.2035    0.2046 C.2       1 MOL         0.1736
      9 C9          3.0868   -5.6896   -0.2170 C.3       1 MOL        -0.0947
     10 C10         2.4919   -1.2844   -4.8574 C.3       1 MOL        -0.0947
     11 C11         3.4567   -4.2257   -0.0963 C.3       1 MOL         0.1652
     12 C12         3.2011   -1.6042   -3.5582 C.3       1 MOL         0.1652
     13 O1          4.1317   -1.3210   -0.6500 O.2       1 MOL        -0.7660
     14 O2          1.5809   -1.4748   -0.0525 O.3       1 MOL        -0.4646
     15 O3          2.7347   -3.4953   -1.0731 O.3       1 MOL        -0.5512
     16 O4          2.2830   -1.4441   -2.4909 O.3       1 MOL        -0.5512
     17 P1          2.7962   -1.8847   -1.0264 P.3       1 MOL         1.5461
     18 Cl1        -3.9270   -0.2214    3.4507 Cl        1 MOL        -0.0792
     19 Cl2        -1.5073   -1.0012   -1.2747 Cl        1 MOL        -0.0775
     20 Cl3         1.1444    2.5162    0.0651 Cl        1 MOL        -0.0688
     21 H1          0.8369    0.3938    2.8110 H         1 MOL         0.1538
     22 H2         -1.2313    0.3911    4.1533 H         1 MOL         0.1553
     23 H3         -3.4964   -0.8287    0.7054 H         1 MOL         0.1644
     24 H4          2.6434    0.9425   -0.7680 H         1 MOL         0.1886
     25 H5          2.0110   -5.8287   -0.0662 H         1 MOL         0.0494
     26 H6          3.3192   -6.0649   -1.2191 H         1 MOL         0.0494
     27 H7          3.6273   -6.2907    0.5196 H         1 MOL         0.0494
     28 H8          1.6318   -1.9470   -4.9999 H         1 MOL         0.0494
     29 H9          2.1054   -0.2599   -4.8436 H         1 MOL         0.0494
     30 H10         3.1682   -1.3954   -5.7093 H         1 MOL         0.0494
     31 H11         4.5301   -4.0968   -0.2667 H         1 MOL         0.0486
     32 H12         3.2102   -3.8612    0.9056 H         1 MOL         0.0486
     33 H13         4.0461   -0.9243   -3.4124 H         1 MOL         0.0486
     34 H14         3.5719   -2.6341   -3.5754 H         1 MOL         0.0486
@<TRIPOS>BOND
     1    1    2 ar
     2    1    4 ar
     3    2    5 ar
     4    3    5 ar
     5    3    6 ar
     6    4    6 ar
     7    4    8 1
     8    5   18 1
     9    6   19 1
    10    7    8 2
    11    7   20 1
    12    8   14 1
    13    9   11 1
    14   10   12 1
    15   11   15 1
    16   12   16 1
    17   13   17 2
    18   14   17 1
    19   15   17 1
    20   16   17 1
    21    1   21 1
    22    2   22 1
    23    3   23 1
    24    7   24 1
    25    9   25 1
    26    9   26 1
    27    9   27 1
    28   10   28 1
    29   10   29 1
    30   10   30 1
    31   11   31 1
    32   11   32 1
    33   12   33 1
    34   12   34 1
