@<TRIPOS>MOLECULE
alpha_methylstyrene
   19    19     0     0     0
SMALL
USER_CHARGES

@<TRIPOS>ATOM
      1 C1          1.8846   -1.0376   -0.1090 C.ar      1 MOL        -0.1288
      2 C2          0.8176   -0.4410    0.5626 C.ar      1 MOL        -0.1311
      3 C3          2.9348   -1.6038    0.6137 C.ar      1 MOL        -0.1311
      4 C4          0.8008   -0.4105    1.9570 C.ar      1 MOL        -0.1198
      5 C5          2.9180   -1.5734    2.0082 C.ar      1 MOL        -0.1198
      6 C6          1.8509   -0.9767    2.6799 C.ar      1 MOL        -0.0528
      7 C7          1.2296    0.0518    4.8343 C.2       1 MOL        -0.2144
      8 C8          1.8330   -0.9450    4.1340 C.2       1 MOL        -0.0635
      9 C9          2.5269   -2.0546    4.9035 C.3       1 MOL        -0.0565
     10 H1          1.8979   -1.0610   -1.1947 H         1 MOL         0.1307
     11 H2         -0.0000   -0.0004   -0.0003 H         1 MOL         0.1308
     12 H3          3.7654   -2.0683    0.0905 H         1 MOL         0.1308
     13 H4         -0.0380    0.0582    2.4662 H         1 MOL         0.1332
     14 H5          3.7436   -2.0193    2.5577 H         1 MOL         0.1332
     15 H6          1.2256    0.0722    5.9198 H         1 MOL         0.1152
     16 H7          0.7390    0.8809    4.3351 H         1 MOL         0.1152
     17 H8          3.6145   -1.9662    4.8159 H         1 MOL         0.0429
     18 H9          2.2191   -3.0316    4.5150 H         1 MOL         0.0429
     19 H10         2.2847   -2.0444    5.9723 H         1 MOL         0.0429
@<TRIPOS>BOND
     1    1    2 ar
     2    1    3 ar
     3    2    4 ar
     4    3    5 ar
     5    4    6 ar
     6    5    6 ar
     7    6    8 1
     8    7    8 2
     9    8    9 1
    10    1   10 1
    11    2   11 1
    12    3   12 1
    13    4   13 1
    14    5   14 1
    15    7   15 1
    16    7   16 1
    17    9   17 1
    18    9   18 1
    19    9   19 1
