@<TRIPOS>MOLECULE
2_chloro_111_trimethoxyethane
   20    19     0     0     0
SMALL
USER_CHARGES

@<TRIPOS>ATOM
      1 C1          1.5867   -0.4909    1.8109 C.3       1 MOL         0.1313
      2 C2         -0.1014    0.0570    4.6870 C.3       1 MOL         0.1313
      3 C3         -2.2871   -2.4594    3.9524 C.3       1 MOL         0.1313
      4 C4          0.2816   -2.9821    2.6037 C.3       1 MOL         0.0066
      5 C5         -0.2684   -1.5764    2.9328 C.3       1 MOL         0.5220
      6 O1          0.1782   -0.6337    1.9330 O.3       1 MOL        -0.4397
      7 O2          0.2990   -1.2236    4.2158 O.3       1 MOL        -0.4397
      8 O3         -1.7101   -1.5926    2.9862 O.3       1 MOL        -0.4397
      9 Cl1        -0.2434   -3.5549    0.9953 Cl        1 MOL        -0.1443
     10 H1          1.8595    0.5596    1.9377 H         1 MOL         0.0422
     11 H2          1.9059   -0.8452    0.8275 H         1 MOL         0.0422
     12 H3          2.0730   -1.0874    2.5864 H         1 MOL         0.0422
     13 H4          0.5538    0.8228    4.2646 H         1 MOL         0.0422
     14 H5         -0.0477    0.0779    5.7784 H         1 MOL         0.0422
     15 H6         -1.1301    0.2463    4.3711 H         1 MOL         0.0422
     16 H7         -1.4959   -2.9166    4.5516 H         1 MOL         0.0422
     17 H8         -2.8695   -3.2338    3.4468 H         1 MOL         0.0422
     18 H9         -2.9447   -1.8785    4.6035 H         1 MOL         0.0422
     19 H10        -0.0356   -3.7263    3.3401 H         1 MOL         0.0803
     20 H11         1.3757   -2.9843    2.5810 H         1 MOL         0.0803
@<TRIPOS>BOND
     1    1    6 1
     2    2    7 1
     3    3    8 1
     4    4    5 1
     5    4    9 1
     6    5    6 1
     7    5    7 1
     8    5    8 1
     9    1   10 1
    10    1   11 1
    11    1   12 1
    12    2   13 1
    13    2   14 1
    14    2   15 1
    15    3   16 1
    16    3   17 1
    17    3   18 1
    18    4   19 1
    19    4   20 1
