@<TRIPOS>MOLECULE
sec_butylbenzene
   24    24     0     0     0
SMALL
USER_CHARGES

@<TRIPOS>ATOM
      1 C1         -2.8370   -3.0528    1.5023 C.ar      1 MOL        -0.1338
      2 C2         -1.4516   -2.9814    1.6465 C.ar      1 MOL        -0.1290
      3 C3         -3.6204   -1.9195    1.7207 C.ar      1 MOL        -0.1290
      4 C4         -0.8493   -1.7767    2.0092 C.ar      1 MOL        -0.1283
      5 C5         -3.0182   -0.7146    2.0832 C.ar      1 MOL        -0.1283
      6 C6         -1.6445   -0.6670    2.2202 C.ar      1 MOL        -0.0614
      7 C7          0.3373    0.9317    0.4460 C.3       1 MOL        -0.0913
      8 C8         -0.8826    0.7539    4.1414 C.3       1 MOL        -0.0847
      9 C9          0.3956    0.8503    1.9666 C.3       1 MOL        -0.0715
     10 C10        -0.9885    0.6449    2.6154 C.3       1 MOL        -0.0306
     11 H1         -3.3060   -3.9909    1.2201 H         1 MOL         0.1298
     12 H2         -0.8418   -3.8639    1.4768 H         1 MOL         0.1295
     13 H3         -4.6992   -1.9754    1.6084 H         1 MOL         0.1295
     14 H4          0.2309   -1.7304    2.1193 H         1 MOL         0.1311
     15 H5         -3.6364    0.1633    2.2512 H         1 MOL         0.1311
     16 H6          1.3312    1.1539    0.0442 H         1 MOL         0.0337
     17 H7          0.0040   -0.0124    0.0046 H         1 MOL         0.0337
     18 H8         -0.3435    1.7250    0.1215 H         1 MOL         0.0337
     19 H9         -0.2073   -0.0005    4.5595 H         1 MOL         0.0356
     20 H10        -0.5012    1.7389    4.4317 H         1 MOL         0.0356
     21 H11        -1.8631    0.6236    4.6132 H         1 MOL         0.0356
     22 H12         1.0880    0.0509    2.2561 H         1 MOL         0.0398
     23 H13         0.8289    1.7870    2.3395 H         1 MOL         0.0398
     24 H14        -1.6319    1.4717    2.2846 H         1 MOL         0.0495
@<TRIPOS>BOND
     1    1    2 ar
     2    1    3 ar
     3    2    4 ar
     4    3    5 ar
     5    4    6 ar
     6    5    6 ar
     7    6   10 1
     8    7    9 1
     9    8   10 1
    10    9   10 1
    11    1   11 1
    12    2   12 1
    13    3   13 1
    14    4   14 1
    15    5   15 1
    16    7   16 1
    17    7   17 1
    18    7   18 1
    19    8   19 1
    20    8   20 1
    21    8   21 1
    22    9   22 1
    23    9   23 1
    24   10   24 1
