@<TRIPOS>MOLECULE
4_ethylphenol
   19    19     0     0     0
SMALL
USER_CHARGES

@<TRIPOS>ATOM
      1 C1          0.8178   -0.4385    0.5644 C.ar      1 MOL        -0.0920
      2 C2          2.9371   -1.5972    0.6197 C.ar      1 MOL        -0.0920
      3 C3          0.7994   -0.4058    1.9588 C.ar      1 MOL        -0.1829
      4 C4          2.9185   -1.5646    2.0141 C.ar      1 MOL        -0.1829
      5 C5          1.8867   -1.0341   -0.1051 C.ar      1 MOL        -0.1028
      6 C6          1.8497   -0.9689    2.6836 C.ar      1 MOL         0.1202
      7 C7          1.2381   -2.3203   -2.1573 C.3       1 MOL        -0.0869
      8 C8          1.9072   -1.0684   -1.5957 C.3       1 MOL        -0.0407
      9 O1          1.8304   -0.9375    4.0442 O.3       1 MOL        -0.5000
     10 H1         -0.0043    0.0035    0.0079 H         1 MOL         0.1333
     11 H2          3.7744   -2.0629    0.1065 H         1 MOL         0.1333
     12 H3         -0.0353    0.0603    2.4754 H         1 MOL         0.1409
     13 H4          3.7401   -2.0041    2.5732 H         1 MOL         0.1409
     14 H5          1.7434   -3.2266   -1.8066 H         1 MOL         0.0348
     15 H6          1.2671   -2.3178   -3.2514 H         1 MOL         0.0348
     16 H7          0.1896   -2.3784   -1.8459 H         1 MOL         0.0348
     17 H8          1.4063   -0.1774   -2.0076 H         1 MOL         0.0442
     18 H9          2.9435   -1.0171   -1.9671 H         1 MOL         0.0442
     19 H10         1.1745   -0.2775    4.3346 H         1 MOL         0.4186
@<TRIPOS>BOND
     1    1    3 ar
     2    1    5 ar
     3    2    4 ar
     4    2    5 ar
     5    3    6 ar
     6    4    6 ar
     7    5    8 1
     8    6    9 1
     9    7    8 1
    10    1   10 1
    11    2   11 1
    12    3   12 1
    13    4   13 1
    14    7   14 1
    15    7   15 1
    16    7   16 1
    17    8   17 1
    18    8   18 1
    19    9   19 1
