@<TRIPOS>MOLECULE
3_methoxyaniline
   18    18     0     0     0
SMALL
USER_CHARGES

@<TRIPOS>ATOM
      1 C1          0.8324   -0.3948    0.5751 C.ar      1 MOL        -0.0617
      2 C2          1.8991   -1.0135   -0.0768 C.ar      1 MOL        -0.2271
      3 C3          0.8349   -0.2829    1.9655 C.ar      1 MOL        -0.2228
      4 C4          2.9708   -1.4085    2.0522 C.ar      1 MOL        -0.2475
      5 C5          2.9683   -1.5204    0.6618 C.ar      1 MOL         0.1771
      6 C6          1.9042   -0.7896    2.7040 C.ar      1 MOL         0.1604
      7 C7          0.7851   -0.0361    4.6625 C.3       1 MOL         0.1183
      8 N1          4.0476   -2.1452    0.0029 N.pl3     1 MOL        -0.8287
      9 O1          1.9069   -0.6803    4.0606 O.3       1 MOL        -0.3304
     10 H1         -0.0004   -0.0005    0.0001 H         1 MOL         0.1305
     11 H2          1.8867   -1.0956   -1.1605 H         1 MOL         0.1321
     12 H3          0.0012    0.2001    2.4676 H         1 MOL         0.1423
     13 H4          3.8022   -1.8022    2.6323 H         1 MOL         0.1423
     14 H5         -0.0014   -0.7714    4.8490 H         1 MOL         0.0425
     15 H6          0.4148    0.7487    3.9981 H         1 MOL         0.0425
     16 H7          1.0970    0.4089    5.6103 H         1 MOL         0.0425
     17 H8          3.8609   -2.7663   -0.7581 H         1 MOL         0.3939
     18 H9          4.9723   -2.0315    0.3661 H         1 MOL         0.3939
@<TRIPOS>BOND
     1    1    2 ar
     2    1    3 ar
     3    2    5 ar
     4    3    6 ar
     5    4    5 ar
     6    4    6 ar
     7    5    8 1
     8    6    9 1
     9    7    9 1
    10    1   10 1
    11    2   11 1
    12    3   12 1
    13    4   13 1
    14    7   14 1
    15    7   15 1
    16    7   16 1
    17    8   17 1
    18    8   18 1
