@<TRIPOS>MOLECULE
thiophenol
   13    13     0     0     0
SMALL
USER_CHARGES

@<TRIPOS>ATOM
      1 C1          1.8846   -1.0376   -0.1090 C.ar      1 MOL        -0.1371
      2 C2          0.8176   -0.4410    0.5626 C.ar      1 MOL        -0.1130
      3 C3          2.9348   -1.6038    0.6137 C.ar      1 MOL        -0.1130
      4 C4          0.8008   -0.4105    1.9570 C.ar      1 MOL        -0.1319
      5 C5          2.9180   -1.5734    2.0082 C.ar      1 MOL        -0.1319
      6 C6          1.8509   -0.9767    2.6799 C.ar      1 MOL         0.0166
      7 S1          1.8293   -0.9375    4.4617 S.3       1 MOL        -0.2541
      8 H1          1.8979   -1.0618   -1.1946 H         1 MOL         0.1335
      9 H2          0.0005    0.0004   -0.0006 H         1 MOL         0.1338
     10 H3          3.7653   -2.0685    0.0904 H         1 MOL         0.1338
     11 H4         -0.0393    0.0592    2.4630 H         1 MOL         0.1364
     12 H5          3.7455   -2.0197    2.5544 H         1 MOL         0.1364
     13 H6          0.6757   -0.2675    4.6037 H         1 MOL         0.1904
@<TRIPOS>BOND
     1    1    2 ar
     2    1    3 ar
     3    2    4 ar
     4    3    5 ar
     5    4    6 ar
     6    5    6 ar
     7    6    7 1
     8    1    8 1
     9    2    9 1
    10    3   10 1
    11    4   11 1
    12    5   12 1
    13    7   13 1
