@<TRIPOS>MOLECULE
135_trichlorobenzene
   12    12     0     0     0
SMALL
USER_CHARGES

@<TRIPOS>ATOM
      1 C1          1.8994   -1.0130   -0.0784 C.ar      1 MOL        -0.1221
      2 C2          0.8129   -0.3274    1.9678 C.ar      1 MOL        -0.1221
      3 C3          2.9471   -1.4565    2.0530 C.ar      1 MOL        -0.1221
      4 C4          0.8258   -0.4081    0.5753 C.ar      1 MOL         0.0316
      5 C5          2.9600   -1.5372    0.6605 C.ar      1 MOL         0.0316
      6 C6          1.8736   -0.8516    2.7066 C.ar      1 MOL         0.0316
      7 Cl1        -0.4826    0.2387   -0.3368 Cl        1 MOL        -0.0750
      8 Cl2         4.2844   -2.2835   -0.1463 Cl        1 MOL        -0.0750
      9 Cl3         1.8571   -0.7527    4.4248 Cl        1 MOL        -0.0750
     10 H1          1.9095   -1.0762   -1.1646 H         1 MOL         0.1656
     11 H2         -0.0242    0.1446    2.4781 H         1 MOL         0.1656
     12 H3          3.7746   -1.8650    2.6295 H         1 MOL         0.1656
@<TRIPOS>BOND
     1    1    4 ar
     2    1    5 ar
     3    2    4 ar
     4    2    6 ar
     5    3    5 ar
     6    3    6 ar
     7    4    7 1
     8    5    8 1
     9    6    9 1
    10    1   10 1
    11    2   11 1
    12    3   12 1
