@<TRIPOS>MOLECULE
23_dimethylbuta_13_diene
   16    15     0     0     0
SMALL
USER_CHARGES

@<TRIPOS>ATOM
      1 C1          0.6209   -0.4101   -0.7911 C.2       1 MOL        -0.2162
      2 C2         -0.8314   -3.7984   -1.2032 C.2       1 MOL        -0.2162
      3 C3          0.4218   -1.6576   -1.2550 C.2       1 MOL        -0.0805
      4 C4         -0.6322   -2.5508   -0.7393 C.2       1 MOL        -0.0805
      5 C5          1.3221   -2.1636   -2.3566 C.3       1 MOL        -0.0558
      6 C6         -1.5339   -2.0441    0.3612 C.3       1 MOL        -0.0558
      7 H1          1.3955    0.2471   -1.1696 H         1 MOL         0.1138
      8 H2          0.0000    0.0000    0.0000 H         1 MOL         0.1138
      9 H3         -1.6186   -4.4281   -0.7991 H         1 MOL         0.1138
     10 H4         -0.2318   -4.2416   -1.9901 H         1 MOL         0.1138
     11 H5          2.0668   -1.4182   -2.6585 H         1 MOL         0.0416
     12 H6          0.7395   -2.4119   -3.2507 H         1 MOL         0.0416
     13 H7          1.8747   -3.0516   -2.0306 H         1 MOL         0.0416
     14 H8         -2.0876   -1.1576    0.0330 H         1 MOL         0.0416
     15 H9         -2.2777   -2.7902    0.6638 H         1 MOL         0.0416
     16 H10        -0.9530   -1.7929    1.2554 H         1 MOL         0.0416
@<TRIPOS>BOND
     1    1    3 2
     2    2    4 2
     3    3    4 1
     4    3    5 1
     5    4    6 1
     6    1    7 1
     7    1    8 1
     8    2    9 1
     9    2   10 1
    10    5   11 1
    11    5   12 1
    12    5   13 1
    13    6   14 1
    14    6   15 1
    15    6   16 1
