@<TRIPOS>MOLECULE
1,1,1,2,2-pentachloroethane
    8     7     0     0     0
SMALL
USER_CHARGES

@<TRIPOS>ATOM
      1 C1         -0.4928    0.4027   -0.4760 C.3       1 MOL         0.1191
      2 C2          0.4490   -0.4711    0.3773 C.3       1 MOL         0.2277
      3 Cl1        -1.9284    0.9734    0.4356 Cl        1 MOL        -0.1029
      4 Cl2         0.3273    1.8413   -1.1653 Cl        1 MOL        -0.1043
      5 Cl3         1.8464   -1.0375   -0.6069 Cl        1 MOL        -0.0950
      6 Cl4        -0.4097   -1.9448    0.9549 Cl        1 MOL        -0.0942
      7 Cl5         1.0870    0.4037    1.8076 Cl        1 MOL        -0.0755
      8 H1         -0.8776   -0.1672   -1.3280 H         1 MOL         0.1251
@<TRIPOS>BOND
     1    1    2 1
     2    1    3 1
     3    1    4 1
     4    2    5 1
     5    2    6 1
     6    2    7 1
     7    1    8 1
