@<TRIPOS>MOLECULE
azetidine
   11    11     0     0     0
SMALL
USER_CHARGES

@<TRIPOS>ATOM
      1 C1          0.7944   -0.6101   -0.4450 C.3       1 MOL        -0.0984
      2 C2          0.4847   -1.1022   -1.8659 C.3       1 MOL         0.1161
      3 C3          1.9058    0.2049   -1.1213 C.3       1 MOL         0.1161
      4 N1          1.1341    0.1261   -2.3857 N.3       1 MOL        -0.7757
      5 H1         -0.0003   -0.0008    0.0006 H         1 MOL         0.0568
      6 H2          1.1176   -1.3693    0.2712 H         1 MOL         0.0568
      7 H3          1.0056   -2.0259   -2.1445 H         1 MOL         0.0478
      8 H4         -0.5754   -1.2007   -2.1135 H         1 MOL         0.0478
      9 H5          2.0526    1.2173   -0.7362 H         1 MOL         0.0478
     10 H6          2.8743   -0.3068   -1.1651 H         1 MOL         0.0478
     11 H7          1.6995   -0.0099   -3.2220 H         1 MOL         0.3370
@<TRIPOS>BOND
     1    1    2 1
     2    1    3 1
     3    2    4 1
     4    3    4 1
     5    1    5 1
     6    1    6 1
     7    2    7 1
     8    2    8 1
     9    3    9 1
    10    3   10 1
    11    4   11 1
