@<TRIPOS>MOLECULE
6-chlorouracil
   12    12     0     0     0
SMALL
USER_CHARGES

@<TRIPOS>ATOM
      1 C1         -1.8880   -0.5310    2.6100 C.2       1 MOL        -0.3036
      2 C2         -1.1990    0.0980    1.6560 C.2       1 MOL         0.1899
      3 C3         -1.8930   -2.0150    2.6190 C.2       1 MOL         0.7167
      4 C4         -0.4360   -1.9430    0.6060 C.2       1 MOL         0.8121
      5 N1         -0.4960   -0.5590    0.6870 N.am      1 MOL        -0.4759
      6 N2         -1.1560   -2.6100    1.6030 N.am      1 MOL        -0.5846
      7 O1         -2.5130   -2.6340    3.4790 O.2       1 MOL        -0.5962
      8 O2          0.1980   -2.5370   -0.2670 O.2       1 MOL        -0.6259
      9 Cl1        -1.1160    1.8050    1.5380 Cl        1 MOL        -0.0472
     10 H1         -2.4440   -0.0110    3.3800 H         1 MOL         0.1927
     11 H2          0.0040   -0.0110   -0.0060 H         1 MOL         0.3637
     12 H3         -1.1380   -3.6250    1.5810 H         1 MOL         0.3584
@<TRIPOS>BOND
     1    1    2 2
     2    1    3 1
     3    2    5 1
     4    2    9 1
     5    3    6 am
     6    3    7 2
     7    4    5 am
     8    4    6 am
     9    4    8 2
    10    1   10 1
    11    5   11 1
    12    6   12 1
