@<TRIPOS>MOLECULE
pentanenitrile
   15    14     0     0     0
SMALL
USER_CHARGES

@<TRIPOS>ATOM
      1 C1          0.7263    2.8961    5.1051 C.1       1 MOL         0.2176
      2 C2          0.1482    0.9343    0.5521 C.3       1 MOL        -0.0921
      3 C3          0.5466    1.6542    4.3415 C.3       1 MOL        -0.0290
      4 C4          0.2523    0.6526    2.0425 C.3       1 MOL        -0.0805
      5 C5          0.4020    1.9434    2.8476 C.3       1 MOL        -0.0743
      6 N1          0.8675    3.8762    5.7100 N.1       1 MOL        -0.3772
      7 H1          1.0448    1.4449    0.1861 H         1 MOL         0.0350
      8 H2          0.0403   -0.0023   -0.0039 H         1 MOL         0.0350
      9 H3         -0.7204    1.5629    0.3311 H         1 MOL         0.0350
     10 H4         -0.3424    1.1271    4.7064 H         1 MOL         0.0721
     11 H5          1.4049    0.9938    4.5114 H         1 MOL         0.0721
     12 H6         -0.6430    0.1113    2.3697 H         1 MOL         0.0429
     13 H7          1.1124   -0.0021    2.2251 H         1 MOL         0.0429
     14 H8         -0.4709    2.5868    2.6771 H         1 MOL         0.0502
     15 H9          1.2780    2.5004    2.4909 H         1 MOL         0.0502
@<TRIPOS>BOND
     1    1    3 1
     2    1    6 3
     3    2    4 1
     4    3    5 1
     5    4    5 1
     6    2    7 1
     7    2    8 1
     8    2    9 1
     9    3   10 1
    10    3   11 1
    11    4   12 1
    12    4   13 1
    13    5   14 1
    14    5   15 1
