@<TRIPOS>MOLECULE
cyclopropane
    9     9     0     0     0
SMALL
USER_CHARGES

@<TRIPOS>ATOM
      1 C1          0.5948   -0.7129    0.5570 C.3       1 MOL        -0.1346
      2 C2          1.5175   -1.6099   -0.2149 C.3       1 MOL        -0.1346
      3 C3          2.0779   -0.4929    0.6159 C.3       1 MOL        -0.1346
      4 H1          0.0000   -0.0001   -0.0001 H         1 MOL         0.0673
      5 H2          0.1095   -1.1218    1.4342 H         1 MOL         0.0673
      6 H3          1.6535   -2.6229    0.1425 H         1 MOL         0.0673
      7 H4          1.5441   -1.5011   -1.2918 H         1 MOL         0.0673
      8 H5          2.4820    0.3679    0.0983 H         1 MOL         0.0673
      9 H6          2.5914   -0.7537    1.5327 H         1 MOL         0.0673
@<TRIPOS>BOND
     1    1    2 1
     2    1    3 1
     3    2    3 1
     4    1    4 1
     5    1    5 1
     6    2    6 1
     7    2    7 1
     8    3    8 1
     9    3    9 1
