@<TRIPOS>MOLECULE
CUP08018_AM1BCC_v1_0
   24    26     0     0     0
SMALL
USER_CHARGES

@<TRIPOS>ATOM
      1 C1          3.2617   -3.6674   -1.2374 C.2       1 MOL        -0.0474
      2 C2          2.8387   -3.3819   -2.4742 C.2       1 MOL        -0.0474
      3 C3         -0.4685   -0.9859   -0.0673 C.3       1 MOL        -0.0965
      4 C4          1.2530   -2.7698   -0.2050 C.3       1 MOL        -0.0657
      5 C5          0.7495   -2.4301   -1.6780 C.3       1 MOL        -0.0657
      6 C6          0.2694   -2.0453    0.7327 C.3       1 MOL         0.0597
      7 C7         -0.4879   -1.5342   -1.4834 C.3       1 MOL         0.0597
      8 C8          2.8066   -2.5279   -0.3245 C.3       1 MOL         0.0921
      9 C9          2.0949   -2.0475   -2.4059 C.3       1 MOL         0.0921
     10 C10         2.9804   -1.3496   -1.3299 C.3       1 MOL         0.1407
     11 Cl1         3.9982   -5.0972   -0.7018 Cl        1 MOL        -0.0032
     12 Cl2         2.9217   -4.3703   -3.8490 Cl        1 MOL        -0.0032
     13 Cl3         0.8980   -1.3938    2.2419 Cl        1 MOL        -0.1498
     14 Cl4        -0.7784   -0.2620   -2.6643 Cl        1 MOL        -0.1498
     15 Cl5         3.7388   -2.4161    1.1571 Cl        1 MOL        -0.0588
     16 Cl6         1.9904   -1.2351   -3.9568 Cl        1 MOL        -0.0588
     17 Cl7         4.7026   -1.0644   -1.8527 Cl        1 MOL        -0.0855
     18 Cl8         2.4174    0.2384   -0.7701 Cl        1 MOL        -0.0855
     19 H1         -1.4904   -0.8569    0.3116 H         1 MOL         0.0793
     20 H2         -0.0077    0.0004    0.0027 H         1 MOL         0.0793
     21 H3          1.0957   -3.8438   -0.0171 H         1 MOL         0.0819
     22 H4          0.3693   -3.3538   -2.1425 H         1 MOL         0.0819
     23 H5         -0.4792   -2.7883    1.0385 H         1 MOL         0.0754
     24 H6         -1.3658   -2.1899   -1.5563 H         1 MOL         0.0754
@<TRIPOS>BOND
     1    1    2 2
     2    1    8 1
     3    1   11 1
     4    2    9 1
     5    2   12 1
     6    3    6 1
     7    3    7 1
     8    4    5 1
     9    4    6 1
    10    4    8 1
    11    5    7 1
    12    5    9 1
    13    6   13 1
    14    7   14 1
    15    8   10 1
    16    8   15 1
    17    9   10 1
    18    9   16 1
    19   10   17 1
    20   10   18 1
    21    3   19 1
    22    3   20 1
    23    4   21 1
    24    5   22 1
    25    6   23 1
    26    7   24 1
